data/pglib_opf_case240_pserc_nk.m
%%%%%%%%%%%%%%%%%%%%%%%%%%%%%%%%%%%%%%%%%%%%%%%%%%%%%%%%%%%%%%%%%%%%%%%%%%%
%%%%                                                                  %%%%%
%%%%    IEEE PES Power Grid Library - Optimal Power Flow - v17.08     %%%%%
%%%%          (https://github.com/power-grid-lib/pglib-opf)           %%%%%
%%%%               Benchmark Group - Typical Operations               %%%%%
%%%%                        30 - August - 2017                        %%%%%
%%%%                                                                  %%%%%
%%%%%%%%%%%%%%%%%%%%%%%%%%%%%%%%%%%%%%%%%%%%%%%%%%%%%%%%%%%%%%%%%%%%%%%%%%%
%
%   This case was prepared as part of PSERC M-21, "Technical and Economic 
%   Implications of Greenhouse Gas Regulation in a Transmission Constrained 
%   Restructured Electricity Market", which is available at https://pserc.wisc.edu
%   This dataset only includes the network model, the original report has a
%   variety of additional data, which are discussed in the following technical
%   report, 
%
%   Price, J. & Goodin, J.
%   "Reduced Network Modeling of WECC as a Market Design Prototype"
%   Power and Energy Society General Meeting
%   Detroit, MI, July, 2011
%
%   Copyright (c) 2011, Power Systems Engineering Research Center (PSERC)
%   Licensed under the Creative Commons Attribution 4.0 International license,
%   http://creativecommons.org/licenses/by/4.0/
%
function mpc = pglib_opf_case240_pserc
mpc.version = '2';
mpc.baseMVA = 100.0;

%% bus data
%	bus_i	type	Pd	Qd	Gs	Bs	area	Vm	Va	baseKV	zone	Vmax	Vmin
mpc.bus = [
	1001	 1	 0.0	 0.0	 0.0	 0.0	 10	    1.00000	    0.00000	 500.0	 1	    1.10000	    0.90000;
	1002	 1	 226.8419	 -37.472	 0.0	 0.0	 10	    1.00000	    0.00000	 345.0	 1	    1.10000	    0.90000;
	1003	 1	 2153.3224	 366.856	 0.0	 0.0	 10	    1.00000	    0.00000	 230.0	 1	    1.10000	    0.90000;
	1004	 1	 1037.9499	 5.521	 0.0	 0.0	 10	    1.00000	    0.00000	 345.0	 1	    1.10000	    0.90000;
	1032	 2	 0.0	 0.0	 0.0	 0.0	 10	    1.00000	    0.00000	 20.0	 1	    1.10000	    0.90000;
	1034	 2	 0.0	 0.0	 0.0	 0.0	 10	    1.00000	    0.00000	 20.0	 1	    1.10000	    0.90000;
	1101	 1	 4527.3661	 -137.044	 0.0	 0.0	 10	    1.00000	    0.00000	 500.0	 1	    1.10000	    0.90000;
	1102	 1	 176.4436	 23.004	 0.0	 0.0	 10	    1.00000	    0.00000	 345.0	 1	    1.10000	    0.90000;
	1131	 2	 0.0	 0.0	 0.0	 0.0	 10	    1.00000	    0.00000	 20.0	 1	    1.10000	    0.90000;
	1201	 1	 166.9882	 -2.012	 0.0	 0.0	 10	    1.00000	    0.00000	 500.0	 1	    1.10000	    0.90000;
	1202	 1	 875.61	 287.131	 0.0	 0.0	 10	    1.00000	    0.00000	 500.0	 1	    1.10000	    0.90000;
	1232	 2	 0.0	 0.0	 0.0	 0.0	 10	    1.00000	    0.00000	 20.0	 1	    1.10000	    0.90000;
	1301	 1	 2704.7793	 352.826	 0.0	 0.0	 10	    1.00000	    0.00000	 500.0	 1	    1.10000	    0.90000;
	1302	 1	 17.5556	 2.304	 0.0	 0.0	 10	    1.00000	    0.00000	 500.0	 1	    1.10000	    0.90000;
	1303	 1	 6235.136	 813.349	 0.0	 0.0	 10	    1.00000	    0.00000	 345.0	 1	    1.10000	    0.90000;
	1331	 2	 0.0	 0.0	 0.0	 0.0	 10	    1.00000	    0.00000	 20.0	 1	    1.10000	    0.90000;
	1333	 2	 0.0	 0.0	 0.0	 0.0	 10	    1.00000	    0.00000	 20.0	 1	    1.10000	    0.90000;
	1401	 1	 6535.5365	 1524.594	 0.0	 0.0	 10	    1.00000	    0.00000	 500.0	 1	    1.10000	    0.90000;
	1402	 1	 5366.6305	 -600.162	 0.0	 0.0	 10	    1.00000	    0.00000	 500.0	 1	    1.10000	    0.90000;
	1403	 1	 0.0	 0.0	 0.0	 0.0	 10	    1.00000	    0.00000	 230.0	 1	    1.10000	    0.90000;
	1431	 2	 0.0	 0.0	 0.0	 0.0	 10	    1.00000	    0.00000	 20.0	 1	    1.10000	    0.90000;
	2000	 1	 2207.188	 287.916	 0.0	 0.0	 20	    1.00000	    0.00000	 230.0	 1	    1.10000	    0.90000;
	2030	 2	 0.0	 0.0	 0.0	 0.0	 20	    1.00000	    0.00000	 20.0	 1	    1.10000	    0.90000;
	2100	 1	 281.1513	 54.83	 0.0	 0.0	 21	    1.00000	    0.00000	 230.0	 1	    1.10000	    0.90000;
	2130	 2	 0.0	 0.0	 0.0	 0.0	 21	    1.00000	    0.00000	 20.0	 1	    1.10000	    0.90000;
	2201	 1	 0.0	 0.0	 0.0	 0.0	 22	    1.00000	    0.00000	 500.0	 1	    1.10000	    0.90000;
	2202	 1	 1545.949	 268.565	 0.0	 0.0	 22	    1.00000	    0.00000	 230.0	 1	    1.10000	    0.90000;
	2203	 1	 1708.5525	 278.273	 0.0	 0.0	 22	    1.00000	    0.00000	 230.0	 1	    1.10000	    0.90000;
	2233	 2	 0.0	 0.0	 0.0	 0.0	 22	    1.00000	    0.00000	 20.0	 1	    1.10000	    0.90000;
	2301	 1	 0.0	 0.0	 0.0	 0.0	 22	    1.00000	    0.00000	 500.0	 1	    1.10000	    0.90000;
	2302	 1	 0.0	 0.0	 0.0	 0.0	 22	    1.00000	    0.00000	 230.0	 1	    1.10000	    0.90000;
	2332	 2	 0.0	 0.0	 0.0	 0.0	 22	    1.00000	    0.00000	 20.0	 1	    1.10000	    0.90000;
	2400	 1	 843.2926	 76.663	 0.0	 0.0	 24	    1.00000	    0.00000	 500.0	 1	    1.10000	    0.90000;
	2401	 1	 882.3636	 105.214	 0.0	 0.0	 24	    1.00000	    0.00000	 500.0	 1	    1.10000	    0.90000;
	2402	 1	 1080.0201	 81.979	 0.0	 0.0	 24	    1.00000	    0.00000	 500.0	 1	    1.10000	    0.90000;
	2403	 1	 1050.004	 38.543	 0.0	 0.0	 24	    1.00000	    0.00000	 500.0	 1	    1.10000	    0.90000;
	2404	 1	 0.0	 0.0	 0.0	 0.0	 24	    1.00000	    0.00000	 500.0	 1	    1.10000	    0.90000;
	2405	 1	 824.6826	 22.901	 0.0	 0.0	 24	    1.00000	    0.00000	 230.0	 1	    1.10000	    0.90000;
	2406	 1	 737.4036	 -40.751	 0.0	 0.0	 24	    1.00000	    0.00000	 230.0	 1	    1.10000	    0.90000;
	2407	 1	 1732.771	 -36.535	 0.0	 0.0	 24	    1.00000	    0.00000	 230.0	 1	    1.10000	    0.90000;
	2408	 1	 1743.2768	 -72.623	 0.0	 0.0	 24	    1.00000	    0.00000	 230.0	 1	    1.10000	    0.90000;
	2409	 1	 1601.7777	 -86.698	 0.0	 0.0	 24	    1.00000	    0.00000	 230.0	 1	    1.10000	    0.90000;
	2410	 1	 1576.7872	 58.184	 0.0	 0.0	 24	    1.00000	    0.00000	 230.0	 1	    1.10000	    0.90000;
	2411	 1	 1087.6239	 75.955	 0.0	 0.0	 24	    1.00000	    0.00000	 230.0	 1	    1.10000	    0.90000;
	2438	 2	 0.0	 0.0	 0.0	 0.0	 24	    1.00000	    0.00000	 20.0	 1	    1.10000	    0.90000;
	2501	 1	 0.0	 0.0	 0.0	 0.0	 25	    1.00000	    0.00000	 500.0	 1	    1.10000	    0.90000;
	2502	 1	 2369.1531	 -91.905	 0.0	 0.0	 25	    1.00000	    0.00000	 230.0	 1	    1.10000	    0.90000;
	2503	 1	 1845.9256	 201.991	 0.0	 0.0	 25	    1.00000	    0.00000	 230.0	 1	    1.10000	    0.90000;
	2533	 2	 0.0	 0.0	 0.0	 0.0	 25	    1.00000	    0.00000	 20.0	 1	    1.10000	    0.90000;
	2600	 1	 -1863.9044	 0.0	 0.0	 0.0	 90	    1.00000	    0.00000	 500.0	 1	    1.10000	    0.90000;
	2601	 1	 0.0	 0.0	 0.0	 0.0	 26	    1.00000	    0.00000	 500.0	 1	    1.10000	    0.90000;
	2602	 1	 99.2784	 12.955	 0.0	 0.0	 26	    1.00000	    0.00000	 500.0	 1	    1.10000	    0.90000;
	2603	 1	 0.0	 0.0	 0.0	 0.0	 26	    1.00000	    0.00000	 500.0	 1	    1.10000	    0.90000;
	2604	 1	 2050.7816	 0.0	 0.0	 0.0	 90	    1.00000	    0.00000	 345.0	 1	    1.10000	    0.90000;
	2605	 1	 0.0	 0.0	 0.0	 0.0	 26	    1.00000	    0.00000	 287.0	 1	    1.10000	    0.90000;
	2606	 1	 0.0	 0.0	 0.0	 0.0	 26	    1.00000	    0.00000	 287.0	 1	    1.10000	    0.90000;
	2607	 1	 0.0	 0.0	 0.0	 0.0	 26	    1.00000	    0.00000	 287.0	 1	    1.10000	    0.90000;
	2608	 1	 99.2784	 12.955	 0.0	 0.0	 26	    1.00000	    0.00000	 230.0	 1	    1.10000	    0.90000;
	2609	 1	 134.0261	 26.805	 0.0	 0.0	 26	    1.00000	    0.00000	 230.0	 1	    1.10000	    0.90000;
	2610	 1	 99.2784	 12.955	 0.0	 0.0	 26	    1.00000	    0.00000	 230.0	 1	    1.10000	    0.90000;
	2611	 1	 99.2784	 12.955	 0.0	 0.0	 26	    1.00000	    0.00000	 230.0	 1	    1.10000	    0.90000;
	2612	 1	 120.1277	 24.819	 0.0	 0.0	 26	    1.00000	    0.00000	 230.0	 1	    1.10000	    0.90000;
	2613	 1	 317.693	 64.532	 0.0	 0.0	 26	    1.00000	    0.00000	 230.0	 1	    1.10000	    0.90000;
	2614	 1	 137.0047	 27.798	 0.0	 0.0	 26	    1.00000	    0.00000	 230.0	 1	    1.10000	    0.90000;
	2615	 1	 801.9756	 131.148	 0.0	 0.0	 26	    1.00000	    0.00000	 230.0	 1	    1.10000	    0.90000;
	2616	 1	 116.1565	 23.827	 0.0	 0.0	 26	    1.00000	    0.00000	 230.0	 1	    1.10000	    0.90000;
	2617	 1	 120.1277	 24.819	 0.0	 0.0	 26	    1.00000	    0.00000	 230.0	 1	    1.10000	    0.90000;
	2618	 1	 881.2994	 -6.155	 0.0	 0.0	 26	    1.00000	    0.00000	 230.0	 1	    1.10000	    0.90000;
	2619	 1	 -2773.8339	 0.0	 0.0	 0.0	 90	    1.00000	    0.00000	 230.0	 1	    1.10000	    0.90000;
	2620	 1	 203.7206	 17.473	 0.0	 0.0	 26	    1.00000	    0.00000	 230.0	 1	    1.10000	    0.90000;
	2621	 1	 235.4897	 -62.745	 0.0	 0.0	 26	    1.00000	    0.00000	 138.0	 1	    1.10000	    0.90000;
	2630	 2	 0.0	 0.0	 0.0	 0.0	 26	    1.00000	    0.00000	 20.0	 1	    1.10000	    0.90000;
	2631	 2	 0.0	 0.0	 0.0	 0.0	 26	    1.00000	    0.00000	 20.0	 1	    1.10000	    0.90000;
	2634	 2	 0.0	 0.0	 0.0	 0.0	 90	    1.00000	    0.00000	 20.0	 1	    1.10000	    0.90000;
	2637	 2	 0.0	 0.0	 0.0	 0.0	 26	    1.00000	    0.00000	 20.0	 1	    1.10000	    0.90000;
	2638	 2	 0.0	 0.0	 0.0	 0.0	 26	    1.00000	    0.00000	 20.0	 1	    1.10000	    0.90000;
	2901	 1	 0.0	 0.0	 0.0	 0.0	 24	    1.00000	    0.00000	 500.0	 1	    1.10000	    0.90000;
	2902	 1	 0.0	 0.0	 0.0	 0.0	 24	    1.00000	    0.00000	 500.0	 1	    1.10000	    0.90000;
	3101	 1	 341.3057	 52.828	 0.0	 0.0	 31	    1.00000	    0.00000	 230.0	 1	    1.10000	    0.90000;
	3102	 1	 159.4648	 24.929	 0.0	 0.0	 31	    1.00000	    0.00000	 230.0	 1	    1.10000	    0.90000;
	3103	 1	 419.6109	 59.777	 0.0	 0.0	 32	    1.00000	    0.00000	 230.0	 1	    1.10000	    0.90000;
	3104	 1	 309.9718	 40.133	 0.0	 0.0	 31	    1.00000	    0.00000	 115.0	 1	    1.10000	    0.90000;
	3105	 1	 239.3018	 49.091	 0.0	 0.0	 31	    1.00000	    0.00000	 115.0	 1	    1.10000	    0.90000;
	3133	 2	 0.0	 0.0	 0.0	 0.0	 32	    1.00000	    0.00000	 20.0	 1	    1.10000	    0.90000;
	3135	 2	 0.0	 0.0	 0.0	 0.0	 31	    1.00000	    0.00000	 20.0	 1	    1.10000	    0.90000;
	3201	 1	 462.4769	 97.849	 0.0	 0.0	 32	    1.00000	    0.00000	 230.0	 1	    1.10000	    0.90000;
	3202	 1	 586.1795	 83.473	 0.0	 0.0	 32	    1.00000	    0.00000	 230.0	 1	    1.10000	    0.90000;
	3203	 1	 657.1046	 158.476	 0.0	 0.0	 32	    1.00000	    0.00000	 230.0	 1	    1.10000	    0.90000;
	3204	 1	 668.7879	 95.313	 0.0	 0.0	 32	    1.00000	    0.00000	 230.0	 1	    1.10000	    0.90000;
	3205	 1	 546.0609	 77.782	 0.0	 0.0	 32	    1.00000	    0.00000	 230.0	 1	    1.10000	    0.90000;
	3234	 2	 0.0	 0.0	 0.0	 0.0	 32	    1.00000	    0.00000	 20.0	 1	    1.10000	    0.90000;
	3301	 1	 0.0	 0.0	 0.0	 0.0	 32	    1.00000	    0.00000	 500.0	 1	    1.10000	    0.90000;
	3302	 1	 345.3259	 85.791	 0.0	 0.0	 32	    1.00000	    0.00000	 230.0	 1	    1.10000	    0.90000;
	3303	 1	 625.4106	 150.715	 0.0	 0.0	 32	    1.00000	    0.00000	 230.0	 1	    1.10000	    0.90000;
	3304	 1	 533.4822	 122.616	 0.0	 0.0	 32	    1.00000	    0.00000	 230.0	 1	    1.10000	    0.90000;
	3305	 1	 430.3196	 61.225	 0.0	 0.0	 32	    1.00000	    0.00000	 230.0	 1	    1.10000	    0.90000;
	3333	 2	 0.0	 0.0	 0.0	 0.0	 32	    1.00000	    0.00000	 20.0	 1	    1.10000	    0.90000;
	3401	 1	 557.7071	 135.909	 0.0	 0.0	 34	    1.00000	    0.00000	 230.0	 1	    1.10000	    0.90000;
	3402	 1	 0.0	 0.0	 0.0	 0.0	 34	    1.00000	    0.00000	 230.0	 1	    1.10000	    0.90000;
	3403	 1	 515.9687	 73.583	 0.0	 0.0	 34	    1.00000	    0.00000	 230.0	 1	    1.10000	    0.90000;
	3404	 1	 438.461	 62.075	 0.0	 0.0	 34	    1.00000	    0.00000	 230.0	 1	    1.10000	    0.90000;
	3405	 1	 448.8976	 63.723	 0.0	 0.0	 34	    1.00000	    0.00000	 230.0	 1	    1.10000	    0.90000;
	3432	 2	 0.0	 0.0	 0.0	 0.0	 34	    1.00000	    0.00000	 20.0	 1	    1.10000	    0.90000;
	3433	 2	 0.0	 0.0	 0.0	 0.0	 34	    1.00000	    0.00000	 20.0	 1	    1.10000	    0.90000;
	3501	 1	 625.0164	 89.015	 0.0	 0.0	 35	    1.00000	    0.00000	 230.0	 1	    1.10000	    0.90000;
	3531	 2	 0.0	 0.0	 0.0	 0.0	 35	    1.00000	    0.00000	 20.0	 1	    1.10000	    0.90000;
	3601	 1	 104.8564	 14.844	 0.0	 0.0	 36	    1.00000	    0.00000	 115.0	 1	    1.10000	    0.90000;
	3631	 2	 0.0	 0.0	 0.0	 0.0	 36	    1.00000	    0.00000	 20.0	 1	    1.10000	    0.90000;
	3701	 1	 317.0506	 15.847	 0.0	 0.0	 37	    1.00000	    0.00000	 115.0	 1	    1.10000	    0.90000;
	3731	 2	 0.0	 0.0	 0.0	 0.0	 37	    1.00000	    0.00000	 20.0	 1	    1.10000	    0.90000;
	3801	 1	 191.2229	 47.411	 0.0	 0.0	 38	    1.00000	    0.00000	 500.0	 1	    1.10000	    0.90000;
	3802	 1	 0.0	 0.0	 0.0	 0.0	 38	    1.00000	    0.00000	 500.0	 1	    1.10000	    0.90000;
	3803	 1	 0.0	 0.0	 0.0	 0.0	 38	    1.00000	    0.00000	 500.0	 1	    1.10000	    0.90000;
	3804	 1	 223.6404	 55.318	 0.0	 0.0	 38	    1.00000	    0.00000	 230.0	 1	    1.10000	    0.90000;
	3805	 1	 499.3888	 163.106	 0.0	 0.0	 38	    1.00000	    0.00000	 230.0	 1	    1.10000	    0.90000;
	3806	 1	 289.5858	 41.366	 0.0	 0.0	 38	    1.00000	    0.00000	 230.0	 1	    1.10000	    0.90000;
	3831	 2	 0.0	 0.0	 0.0	 0.0	 38	    1.00000	    0.00000	 20.0	 1	    1.10000	    0.90000;
	3835	 2	 0.0	 0.0	 0.0	 0.0	 38	    1.00000	    0.00000	 20.0	 1	    1.10000	    0.90000;
	3836	 2	 0.0	 0.0	 0.0	 0.0	 38	    1.00000	    0.00000	 20.0	 1	    1.10000	    0.90000;
	3891	 1	 0.0	 0.0	 0.0	 0.0	 38	    1.00000	    0.00000	 500.0	 1	    1.10000	    0.90000;
	3892	 1	 0.0	 0.0	 0.0	 0.0	 38	    1.00000	    0.00000	 500.0	 1	    1.10000	    0.90000;
	3893	 1	 0.0	 0.0	 0.0	 0.0	 38	    1.00000	    0.00000	 500.0	 1	    1.10000	    0.90000;
	3894	 1	 0.0	 0.0	 0.0	 0.0	 38	    1.00000	    0.00000	 500.0	 1	    1.10000	    0.90000;
	3895	 1	 0.0	 0.0	 0.0	 0.0	 38	    1.00000	    0.00000	 500.0	 1	    1.10000	    0.90000;
	3896	 1	 0.0	 0.0	 0.0	 0.0	 38	    1.00000	    0.00000	 500.0	 1	    1.10000	    0.90000;
	3897	 1	 0.0	 0.0	 0.0	 0.0	 38	    1.00000	    0.00000	 500.0	 1	    1.10000	    0.90000;
	3901	 1	 0.0	 0.0	 0.0	 0.0	 39	    1.00000	    0.00000	 500.0	 1	    1.10000	    0.90000;
	3902	 1	 152.9913	 38.248	 0.0	 0.0	 39	    1.00000	    0.00000	 500.0	 1	    1.10000	    0.90000;
	3903	 1	 213.2478	 30.269	 0.0	 0.0	 39	    1.00000	    0.00000	 500.0	 1	    1.10000	    0.90000;
	3904	 1	 0.0	 0.0	 0.0	 0.0	 39	    1.00000	    0.00000	 500.0	 1	    1.10000	    0.90000;
	3905	 1	 0.0	 0.0	 0.0	 0.0	 39	    1.00000	    0.00000	 500.0	 1	    1.10000	    0.90000;
	3906	 1	 0.0	 0.0	 0.0	 0.0	 39	    1.00000	    0.00000	 500.0	 1	    1.10000	    0.90000;
	3907	 1	 461.3573	 63.071	 0.0	 0.0	 39	    1.00000	    0.00000	 230.0	 1	    1.10000	    0.90000;
	3908	 1	 200.2788	 24.716	 0.0	 0.0	 39	    1.00000	    0.00000	 230.0	 1	    1.10000	    0.90000;
	3909	 1	 170.957	 39.785	 0.0	 0.0	 39	    1.00000	    0.00000	 230.0	 1	    1.10000	    0.90000;
	3910	 1	 241.8392	 34.44	 0.0	 0.0	 39	    1.00000	    0.00000	 230.0	 1	    1.10000	    0.90000;
	3911	 1	 233.1345	 47.114	 0.0	 0.0	 39	    1.00000	    0.00000	 230.0	 1	    1.10000	    0.90000;
	3912	 1	 174.5029	 -0.634	 0.0	 0.0	 39	    1.00000	    0.00000	 230.0	 1	    1.10000	    0.90000;
	3913	 1	 329.5484	 43.435	 0.0	 0.0	 39	    1.00000	    0.00000	 230.0	 1	    1.10000	    0.90000;
	3914	 1	 227.7536	 52.549	 0.0	 0.0	 39	    1.00000	    0.00000	 230.0	 1	    1.10000	    0.90000;
	3915	 1	 254.4589	 53.402	 0.0	 0.0	 39	    1.00000	    0.00000	 230.0	 1	    1.10000	    0.90000;
	3916	 1	 155.0024	 0.0	 0.0	 0.0	 39	    1.00000	    0.00000	 230.0	 1	    1.10000	    0.90000;
	3917	 1	 238.1882	 43.995	 0.0	 0.0	 39	    1.00000	    0.00000	 230.0	 1	    1.10000	    0.90000;
	3918	 1	 319.2809	 75.464	 0.0	 0.0	 39	    1.00000	    0.00000	 230.0	 1	    1.10000	    0.90000;
	3919	 1	 184.5093	 24.094	 0.0	 0.0	 39	    1.00000	    0.00000	 230.0	 1	    1.10000	    0.90000;
	3920	 1	 172.5018	 23.677	 0.0	 0.0	 39	    1.00000	    0.00000	 230.0	 1	    1.10000	    0.90000;
	3921	 1	 150.8902	 34.821	 0.0	 0.0	 39	    1.00000	    0.00000	 230.0	 1	    1.10000	    0.90000;
	3922	 1	 253.4454	 31.919	 0.0	 0.0	 39	    1.00000	    0.00000	 230.0	 1	    1.10000	    0.90000;
	3923	 1	 399.0618	 67.021	 0.0	 0.0	 39	    1.00000	    0.00000	 230.0	 1	    1.10000	    0.90000;
	3924	 1	 332.4879	 47.165	 0.0	 0.0	 39	    1.00000	    0.00000	 230.0	 1	    1.10000	    0.90000;
	3925	 1	 0.0	 0.0	 0.0	 0.0	 39	    1.00000	    0.00000	 115.0	 1	    1.10000	    0.90000;
	3926	 1	 267.3529	 16.668	 0.0	 0.0	 39	    1.00000	    0.00000	 115.0	 1	    1.10000	    0.90000;
	3931	 2	 0.0	 0.0	 0.0	 0.0	 39	    1.00000	    0.00000	 20.0	 1	    1.10000	    0.90000;
	3932	 2	 0.0	 0.0	 0.0	 0.0	 39	    1.00000	    0.00000	 20.0	 1	    1.10000	    0.90000;
	3933	 3	 0.0	 0.0	 0.0	 0.0	 39	    1.00000	    0.00000	 20.0	 1	    1.10000	    0.90000;
	4001	 1	 0.0	 0.0	 0.0	 0.0	 40	    1.00000	    0.00000	 500.0	 1	    1.10000	    0.90000;
	4002	 1	 168.6841	 21.998	 0.0	 0.0	 40	    1.00000	    0.00000	 500.0	 1	    1.10000	    0.90000;
	4003	 1	 0.0	 0.0	 0.0	 0.0	 40	    1.00000	    0.00000	 500.0	 1	    1.10000	    0.90000;
	4004	 1	 270.4505	 35.297	 0.0	 0.0	 40	    1.00000	    0.00000	 500.0	 1	    1.10000	    0.90000;
	4005	 1	 480.1144	 157.418	 0.0	 0.0	 40	    1.00000	    0.00000	 500.0	 1	    1.10000	    0.90000;
	4006	 1	 0.0	 0.0	 0.0	 0.0	 40	    1.00000	    0.00000	 500.0	 1	    1.10000	    0.90000;
	4007	 1	 0.0	 0.0	 0.0	 0.0	 40	    1.00000	    0.00000	 500.0	 1	    1.10000	    0.90000;
	4008	 1	 285.1446	 37.198	 0.0	 0.0	 40	    1.00000	    0.00000	 345.0	 1	    1.10000	    0.90000;
	4009	 1	 2208.7429	 431.395	 0.0	 0.0	 40	    1.00000	    0.00000	 230.0	 1	    1.10000	    0.90000;
	4010	 1	 3133.6101	 0.0	 0.0	 0.0	 90	    1.00000	    0.00000	 230.0	 1	    1.10000	    0.90000;
	4031	 2	 0.0	 0.0	 0.0	 0.0	 40	    1.00000	    0.00000	 20.0	 1	    1.10000	    0.90000;
	4035	 2	 0.0	 0.0	 0.0	 0.0	 40	    1.00000	    0.00000	 20.0	 1	    1.10000	    0.90000;
	4039	 2	 0.0	 0.0	 0.0	 0.0	 40	    1.00000	    0.00000	 20.0	 1	    1.10000	    0.90000;
	4090	 1	 0.0	 0.0	 0.0	 0.0	 40	    1.00000	    0.00000	 500.0	 1	    1.10000	    0.90000;
	4091	 1	 0.0	 0.0	 0.0	 0.0	 40	    1.00000	    0.00000	 500.0	 1	    1.10000	    0.90000;
	4092	 1	 0.0	 0.0	 0.0	 0.0	 40	    1.00000	    0.00000	 500.0	 1	    1.10000	    0.90000;
	4093	 1	 0.0	 0.0	 0.0	 0.0	 40	    1.00000	    0.00000	 500.0	 1	    1.10000	    0.90000;
	4094	 1	 0.0	 0.0	 0.0	 0.0	 40	    1.00000	    0.00000	 500.0	 1	    1.10000	    0.90000;
	4095	 1	 0.0	 0.0	 0.0	 0.0	 40	    1.00000	    0.00000	 500.0	 1	    1.10000	    0.90000;
	4096	 1	 0.0	 0.0	 0.0	 0.0	 40	    1.00000	    0.00000	 500.0	 1	    1.10000	    0.90000;
	4097	 1	 0.0	 0.0	 0.0	 0.0	 40	    1.00000	    0.00000	 500.0	 1	    1.10000	    0.90000;
	4101	 1	 995.0275	 129.784	 0.0	 0.0	 40	    1.00000	    0.00000	 500.0	 1	    1.10000	    0.90000;
	4102	 1	 480.649	 68.664	 0.0	 0.0	 40	    1.00000	    0.00000	 500.0	 1	    1.10000	    0.90000;
	4103	 1	 11.6269	 1.509	 0.0	 0.0	 40	    1.00000	    0.00000	 500.0	 1	    1.10000	    0.90000;
	4104	 1	 2527.7724	 329.74	 0.0	 0.0	 40	    1.00000	    0.00000	 230.0	 1	    1.10000	    0.90000;
	4131	 2	 0.0	 0.0	 0.0	 0.0	 40	    1.00000	    0.00000	 20.0	 1	    1.10000	    0.90000;
	4132	 2	 0.0	 0.0	 0.0	 0.0	 40	    1.00000	    0.00000	 20.0	 1	    1.10000	    0.90000;
	4201	 1	 5762.6589	 461.013	 0.0	 0.0	 40	    1.00000	    0.00000	 500.0	 1	    1.10000	    0.90000;
	4202	 1	 4558.2389	 594.626	 0.0	 0.0	 40	    1.00000	    0.00000	 500.0	 1	    1.10000	    0.90000;
	4203	 1	 4379.6262	 571.331	 0.0	 0.0	 40	    1.00000	    0.00000	 500.0	 1	    1.10000	    0.90000;
	4204	 1	 1014.5202	 132.34	 0.0	 0.0	 40	    1.00000	    0.00000	 500.0	 1	    1.10000	    0.90000;
	4231	 2	 0.0	 0.0	 0.0	 0.0	 40	    1.00000	    0.00000	 20.0	 1	    1.10000	    0.90000;
	4232	 2	 0.0	 0.0	 0.0	 0.0	 40	    1.00000	    0.00000	 20.0	 1	    1.10000	    0.90000;
	5001	 1	 7574.0522	 1721.375	 0.0	 0.0	 50	    1.00000	    0.00000	 500.0	 1	    1.10000	    0.90000;
	5002	 1	 9003.9839	 1174.359	 0.0	 0.0	 50	    1.00000	    0.00000	 500.0	 1	    1.10000	    0.90000;
	5003	 1	 615.2178	 80.253	 0.0	 0.0	 50	    1.00000	    0.00000	 230.0	 1	    1.10000	    0.90000;
	5004	 1	 0.0	 0.0	 0.0	 0.0	 50	    1.00000	    0.00000	 230.0	 1	    1.10000	    0.90000;
	5031	 2	 0.0	 0.0	 0.0	 0.0	 50	    1.00000	    0.00000	 20.0	 1	    1.10000	    0.90000;
	5032	 2	 0.0	 0.0	 0.0	 0.0	 50	    1.00000	    0.00000	 20.0	 1	    1.10000	    0.90000;
	6101	 1	 0.0	 0.0	 0.0	 0.0	 61	    1.00000	    0.00000	 500.0	 1	    1.10000	    0.90000;
	6102	 1	 1053.1441	 -345.277	 0.0	 0.0	 61	    1.00000	    0.00000	 345.0	 1	    1.10000	    0.90000;
	6103	 1	 391.888	 51.111	 0.0	 0.0	 61	    1.00000	    0.00000	 345.0	 1	    1.10000	    0.90000;
	6104	 1	 1694.958	 221.085	 0.0	 0.0	 61	    1.00000	    0.00000	 230.0	 1	    1.10000	    0.90000;
	6132	 2	 0.0	 0.0	 0.0	 0.0	 61	    1.00000	    0.00000	 20.0	 1	    1.10000	    0.90000;
	6201	 1	 205.82	 26.857	 0.0	 0.0	 60	    1.00000	    0.00000	 500.0	 1	    1.10000	    0.90000;
...
];

%% generator data
%	bus	Pg	Qg	Qmax	Qmin	Vg	mBase	status	Pmax	Pmin	Pc1	Pc2	Qc1min	Qc1max	Qc2min	Qc2max	ramp_agc	ramp_10	ramp_30	ramp_q	apf
mpc.gen = [
	1032	 1030.0	 0.0	 1030.0	 -1030.0	 1.014	 100.0	 1	 2060.0	 0.0	 0.0	 0.0	 0.0	 0.0	 0.0	 0.0	 0.0	 0.0	 0.0	 0.0	 0.0; % COW
	1032	 357.0	 0.0	 357.0	 -357.0	 1.014	 100.0	 1	 714.0	 0.0	 0.0	 0.0	 0.0	 0.0	 0.0	 0.0	 0.0	 0.0	 0.0	 0.0	 0.0; % COW
	1034	 2293.5	 0.0	 2294.0	 -2294.0	 1.014	 100.0	 1	 4587.0	 0.0	 0.0	 0.0	 0.0	 0.0	 0.0	 0.0	 0.0	 0.0	 0.0	 0.0	 0.0; % NG
	1034	 917.5	 0.0	 918.0	 -918.0	 1.014	 100.0	 1	 1835.0	 0.0	 0.0	 0.0	 0.0	 0.0	 0.0	 0.0	 0.0	 0.0	 0.0	 0.0	 0.0; % NUC
	1034	 700.0	 0.0	 700.0	 -700.0	 1.014	 100.0	 1	 1400.0	 0.0	 0.0	 0.0	 0.0	 0.0	 0.0	 0.0	 0.0	 0.0	 0.0	 0.0	 0.0; % NUC
	1131	 307.5	 0.0	 308.0	 -308.0	 1.01	 100.0	 1	 615.0	 0.0	 0.0	 0.0	 0.0	 0.0	 0.0	 0.0	 0.0	 0.0	 0.0	 0.0	 0.0; % COW
	1131	 1915.4	 0.0	 1916.0	 -1916.0	 1.01	 100.0	 1	 3830.8	 0.0	 0.0	 0.0	 0.0	 0.0	 0.0	 0.0	 0.0	 0.0	 0.0	 0.0	 0.0; % COW
	1131	 120.0	 0.0	 120.0	 -120.0	 1.01	 100.0	 1	 240.0	 0.0	 0.0	 0.0	 0.0	 0.0	 0.0	 0.0	 0.0	 0.0	 0.0	 0.0	 0.0; % NG
	1232	 1207.5	 0.0	 1208.0	 -1208.0	 1.08	 100.0	 1	 2415.0	 0.0	 0.0	 0.0	 0.0	 0.0	 0.0	 0.0	 0.0	 0.0	 0.0	 0.0	 0.0; % COW
	1232	 628.0	 0.0	 628.0	 -628.0	 1.08	 100.0	 1	 1256.0	 0.0	 0.0	 0.0	 0.0	 0.0	 0.0	 0.0	 0.0	 0.0	 0.0	 0.0	 0.0; % COW
	1331	 841.0	 0.0	 841.0	 -841.0	 1.045	 100.0	 1	 1682.0	 0.0	 0.0	 0.0	 0.0	 0.0	 0.0	 0.0	 0.0	 0.0	 0.0	 0.0	 0.0; % COW
	1331	 1219.0	 0.0	 1219.0	 -1219.0	 1.045	 100.0	 1	 2438.0	 0.0	 0.0	 0.0	 0.0	 0.0	 0.0	 0.0	 0.0	 0.0	 0.0	 0.0	 0.0; % COW
	1333	 302.5	 0.0	 303.0	 -303.0	 1.005	 100.0	 1	 605.0	 0.0	 0.0	 0.0	 0.0	 0.0	 0.0	 0.0	 0.0	 0.0	 0.0	 0.0	 0.0; % COW
	1333	 2745.5	 0.0	 2746.0	 -2746.0	 1.005	 100.0	 1	 5491.0	 0.0	 0.0	 0.0	 0.0	 0.0	 0.0	 0.0	 0.0	 0.0	 0.0	 0.0	 0.0; % NUC
	1333	 37.5	 0.0	 38.0	 -38.0	 1.005	 100.0	 1	 75.0	 0.0	 0.0	 0.0	 0.0	 0.0	 0.0	 0.0	 0.0	 0.0	 0.0	 0.0	 0.0; % PEL
	1431	 3559.35	 0.0	 3559.0	 -3559.0	 1.035	 100.0	 1	 7118.7	 0.0	 0.0	 0.0	 0.0	 0.0	 0.0	 0.0	 0.0	 0.0	 0.0	 0.0	 0.0; % COW
	1431	 2056.5	 0.0	 2057.0	 -2057.0	 1.035	 100.0	 1	 4113.0	 0.0	 0.0	 0.0	 0.0	 0.0	 0.0	 0.0	 0.0	 0.0	 0.0	 0.0	 0.0; % COW
	1431	 15.0	 0.0	 15.0	 -15.0	 1.035	 100.0	 1	 30.0	 0.0	 0.0	 0.0	 0.0	 0.0	 0.0	 0.0	 0.0	 0.0	 0.0	 0.0	 0.0; % PEL
	2030	 1070.0	 0.0	 1070.0	 -1070.0	 1.0	 100.0	 1	 2140.0	 0.0	 0.0	 0.0	 0.0	 0.0	 0.0	 0.0	 0.0	 0.0	 0.0	 0.0	 0.0; % NUC
	2030	 349.5	 0.0	 350.0	 -350.0	 1.0	 100.0	 1	 699.0	 0.0	 0.0	 0.0	 0.0	 0.0	 0.0	 0.0	 0.0	 0.0	 0.0	 0.0	 0.0; % COW
	2130	 200.0	 0.0	 200.0	 -200.0	 1.035	 100.0	 1	 400.0	 0.0	 0.0	 0.0	 0.0	 0.0	 0.0	 0.0	 0.0	 0.0	 0.0	 0.0	 0.0; % COW
	2130	 253.5	 0.0	 254.0	 -254.0	 1.035	 100.0	 1	 507.0	 0.0	 0.0	 0.0	 0.0	 0.0	 0.0	 0.0	 0.0	 0.0	 0.0	 0.0	 0.0; % NG
	2130	 250.0	 0.0	 250.0	 -250.0	 1.035	 100.0	 1	 500.0	 0.0	 0.0	 0.0	 0.0	 0.0	 0.0	 0.0	 0.0	 0.0	 0.0	 0.0	 0.0; % NG
	2130	 86.0	 0.0	 86.0	 -86.0	 1.035	 100.0	 1	 172.0	 0.0	 0.0	 0.0	 0.0	 0.0	 0.0	 0.0	 0.0	 0.0	 0.0	 0.0	 0.0; % NG
	2233	 353.0	 93.0	 304.0	 -118.0	 1.005	 100.0	 1	 706.0	 0.0	 0.0	 0.0	 0.0	 0.0	 0.0	 0.0	 0.0	 0.0	 0.0	 0.0	 0.0; % COW
	2233	 626.5	 215.0	 611.0	 -181.0	 1.005	 100.0	 1	 1253.0	 0.0	 0.0	 0.0	 0.0	 0.0	 0.0	 0.0	 0.0	 0.0	 0.0	 0.0	 0.0; % COW
	2233	 250.0	 25.5	 206.0	 -155.0	 1.005	 100.0	 1	 500.0	 0.0	 0.0	 0.0	 0.0	 0.0	 0.0	 0.0	 0.0	 0.0	 0.0	 0.0	 0.0; % NG
	2332	 559.0	 113.0	 590.0	 -364.0	 1.035	 100.0	 1	 1118.0	 0.0	 0.0	 0.0	 0.0	 0.0	 0.0	 0.0	 0.0	 0.0	 0.0	 0.0	 0.0; % COW
	2438	 781.5	 137.0	 728.0	 -454.0	 1.009	 100.0	 1	 1563.0	 0.0	 0.0	 0.0	 0.0	 0.0	 0.0	 0.0	 0.0	 0.0	 0.0	 0.0	 0.0; % COW
	2438	 1859.0	 367.0	 1902.0	 -1168.0	 1.009	 100.0	 1	 3718.0	 0.0	 0.0	 0.0	 0.0	 0.0	 0.0	 0.0	 0.0	 0.0	 0.0	 0.0	 0.0; % PEL
	2438	 1401.5	 624.0	 2301.0	 -1053.0	 1.009	 100.0	 1	 2803.0	 0.0	 0.0	 0.0	 0.0	 0.0	 0.0	 0.0	 0.0	 0.0	 0.0	 0.0	 0.0; % COW
	2438	 670.0	 68.0	 659.0	 -523.0	 1.009	 100.0	 1	 1340.0	 0.0	 0.0	 0.0	 0.0	 0.0	 0.0	 0.0	 0.0	 0.0	 0.0	 0.0	 0.0; % COW
	2438	 473.0	 119.5	 436.0	 -197.0	 1.009	 100.0	 1	 946.0	 0.0	 0.0	 0.0	 0.0	 0.0	 0.0	 0.0	 0.0	 0.0	 0.0	 0.0	 0.0; % COW
	2438	 636.5	 4.0	 561.0	 -553.0	 1.009	 100.0	 1	 1273.0	 0.0	 0.0	 0.0	 0.0	 0.0	 0.0	 0.0	 0.0	 0.0	 0.0	 0.0	 0.0; % COW
	2438	 1983.5	 380.0	 1910.0	 -1150.0	 1.009	 100.0	 1	 3967.0	 0.0	 0.0	 0.0	 0.0	 0.0	 0.0	 0.0	 0.0	 0.0	 0.0	 0.0	 0.0; % COW
	2438	 -503.0	 0.25	 0.5	 0.0	 1.009	 100.0	 1	 0.0	 -1006.0	 0.0	 0.0	 0.0	 0.0	 0.0	 0.0	 0.0	 0.0	 0.0	 0.0	 0.0; % SYNC
	2533	 1116.0	 140.0	 1100.0	 -820.0	 1.009	 100.0	 1	 2232.0	 0.0	 0.0	 0.0	 0.0	 0.0	 0.0	 0.0	 0.0	 0.0	 0.0	 0.0	 0.0; % COW
	2630	 1346.0	 0.0	 1346.0	 -1346.0	 1.004	 100.0	 1	 2692.0	 0.0	 0.0	 0.0	 0.0	 0.0	 0.0	 0.0	 0.0	 0.0	 0.0	 0.0	 0.0; % COW
	2631	 159.0	 0.0	 159.0	 -159.0	 1.015	 100.0	 1	 318.0	 0.0	 0.0	 0.0	 0.0	 0.0	 0.0	 0.0	 0.0	 0.0	 0.0	 0.0	 0.0; % COW
	2634	 950.0	 0.0	 950.0	 -950.0	 1.06	 100.0	 1	 1900.0	 0.0	 0.0	 0.0	 0.0	 0.0	 0.0	 0.0	 0.0	 0.0	 0.0	 0.0	 0.0; % NG
	2637	 55.0	 0.0	 110.0	 -110.0	 1.015	 100.0	 1	 110.0	 0.0	 0.0	 0.0	 0.0	 0.0	 0.0	 0.0	 0.0	 0.0	 0.0	 0.0	 0.0; % NG
	2638	 0.0	 0.0	 100.0	 -100.0	 1.015	 100.0	 1	 1272.0	 -1272.0	 0.0	 0.0	 0.0	 0.0	 0.0	 0.0	 0.0	 0.0	 0.0	 0.0	 0.0; % COW
	3133	 21.0	 6.5	 42.0	 -29.0	 1.0	 100.0	 1	 42.0	 0.0	 0.0	 0.0	 0.0	 0.0	 0.0	 0.0	 0.0	 0.0	 0.0	 0.0	 0.0; % NG
	3133	 0.05	 0.0	 500.0	 -500.0	 1.0	 100.0	 1	 0.1	 0.0	 0.0	 0.0	 0.0	 0.0	 0.0	 0.0	 0.0	 0.0	 0.0	 0.0	 0.0; % PEL
	3135	 184.5	 19.0	 239.0	 -201.0	 1.0	 100.0	 1	 369.0	 0.0	 0.0	 0.0	 0.0	 0.0	 0.0	 0.0	 0.0	 0.0	 0.0	 0.0	 0.0; % NG
	3135	 13.0	 7.5	 100.0	 -85.0	 1.0	 100.0	 1	 26.0	 0.0	 0.0	 0.0	 0.0	 0.0	 0.0	 0.0	 0.0	 0.0	 0.0	 0.0	 0.0; % PEL
	3234	 60.5	 13.0	 101.0	 -75.0	 1.01	 100.0	 1	 121.0	 0.0	 0.0	 0.0	 0.0	 0.0	 0.0	 0.0	 0.0	 0.0	 0.0	 0.0	 0.0; % NG
	3234	 1314.0	 5.0	 1244.0	 -1234.0	 1.01	 100.0	 1	 2628.0	 0.0	 0.0	 0.0	 0.0	 0.0	 0.0	 0.0	 0.0	 0.0	 0.0	 0.0	 0.0; % COW
	3234	 353.5	 85.0	 382.0	 -212.0	 1.01	 100.0	 1	 707.0	 0.0	 0.0	 0.0	 0.0	 0.0	 0.0	 0.0	 0.0	 0.0	 0.0	 0.0	 0.0; % COW
	3234	 345.0	 10.0	 75.0	 -55.0	 1.01	 100.0	 1	 690.0	 0.0	 0.0	 0.0	 0.0	 0.0	 0.0	 0.0	 0.0	 0.0	 0.0	 0.0	 0.0; % NG
	3333	 345.0	 86.0	 398.0	 -226.0	 1.0	 100.0	 1	 690.0	 0.0	 0.0	 0.0	 0.0	 0.0	 0.0	 0.0	 0.0	 0.0	 0.0	 0.0	 0.0; % COW
	3333	 106.5	 29.5	 202.0	 -143.0	 1.0	 100.0	 1	 213.0	 0.0	 0.0	 0.0	 0.0	 0.0	 0.0	 0.0	 0.0	 0.0	 0.0	 0.0	 0.0; % NG
	3432	 147.0	 102.0	 510.0	 -306.0	 1.0	 100.0	 1	 1218.0	 -924.0	 0.0	 0.0	 0.0	 0.0	 0.0	 0.0	 0.0	 0.0	 0.0	 0.0	 0.0; % COW
	3433	 314.0	 28.0	 231.0	 -175.0	 1.0	 100.0	 1	 628.0	 0.0	 0.0	 0.0	 0.0	 0.0	 0.0	 0.0	 0.0	 0.0	 0.0	 0.0	 0.0; % COW
	3433	 1008.0	 188.5	 939.0	 -562.0	 1.0	 100.0	 1	 2016.0	 0.0	 0.0	 0.0	 0.0	 0.0	 0.0	 0.0	 0.0	 0.0	 0.0	 0.0	 0.0; % COW
	3531	 434.0	 202.5	 1004.0	 -599.0	 1.0	 100.0	 1	 868.0	 0.0	 0.0	 0.0	 0.0	 0.0	 0.0	 0.0	 0.0	 0.0	 0.0	 0.0	 0.0; % COW
	3531	 162.5	 36.0	 253.0	 -181.0	 1.0	 100.0	 1	 325.0	 0.0	 0.0	 0.0	 0.0	 0.0	 0.0	 0.0	 0.0	 0.0	 0.0	 0.0	 0.0; % NG
	3531	 15.0	 1.5	 13.0	 -10.0	 1.0	 100.0	 1	 30.0	 0.0	 0.0	 0.0	 0.0	 0.0	 0.0	 0.0	 0.0	 0.0	 0.0	 0.0	 0.0; % PEL
	3631	 26.5	 3.0	 20.0	 -14.0	 1.015	 100.0	 1	 53.0	 0.0	 0.0	 0.0	 0.0	 0.0	 0.0	 0.0	 0.0	 0.0	 0.0	 0.0	 0.0; % NG
	3631	 71.5	 20.0	 74.0	 -34.0	 1.015	 100.0	 1	 143.0	 0.0	 0.0	 0.0	 0.0	 0.0	 0.0	 0.0	 0.0	 0.0	 0.0	 0.0	 0.0; % NG
	3731	 127.5	 39.5	 200.0	 -121.0	 1.004	 100.0	 1	 255.0	 0.0	 0.0	 0.0	 0.0	 0.0	 0.0	 0.0	 0.0	 0.0	 0.0	 0.0	 0.0; % NG
	3831	 1133.5	 97.5	 1175.0	 -980.0	 1.049	 100.0	 1	 2267.0	 0.0	 0.0	 0.0	 0.0	 0.0	 0.0	 0.0	 0.0	 0.0	 0.0	 0.0	 0.0; % COW
	3835	 690.5	 91.5	 662.0	 -479.0	 1.035	 100.0	 1	 1381.0	 0.0	 0.0	 0.0	 0.0	 0.0	 0.0	 0.0	 0.0	 0.0	 0.0	 0.0	 0.0; % COW
	3835	 -255.0	 0.25	 0.5	 0.0	 1.035	 100.0	 1	 0.0	 -510.0	 0.0	 0.0	 0.0	 0.0	 0.0	 0.0	 0.0	 0.0	 0.0	 0.0	 0.0; % SYNC
	3836	 510.5	 62.0	 476.0	 -352.0	 1.019	 100.0	 1	 1021.0	 0.0	 0.0	 0.0	 0.0	 0.0	 0.0	 0.0	 0.0	 0.0	 0.0	 0.0	 0.0; % COW
	3931	 157.0	 18.0	 151.0	 -115.0	 1.07	 100.0	 1	 314.0	 0.0	 0.0	 0.0	 0.0	 0.0	 0.0	 0.0	 0.0	 0.0	 0.0	 0.0	 0.0; % NG
	3931	 1848.0	 169.0	 1284.0	 -946.0	 1.07	 100.0	 1	 3696.0	 0.0	 0.0	 0.0	 0.0	 0.0	 0.0	 0.0	 0.0	 0.0	 0.0	 0.0	 0.0; % COW
	3932	 739.0	 325.0	 1150.0	 -500.0	 1.0	 100.0	 1	 1478.0	 0.0	 0.0	 0.0	 0.0	 0.0	 0.0	 0.0	 0.0	 0.0	 0.0	 0.0	 0.0; % COW
	3933	 295.0	 140.5	 363.0	 -82.0	 1.012	 100.0	 1	 590.0	 0.0	 0.0	 0.0	 0.0	 0.0	 0.0	 0.0	 0.0	 0.0	 0.0	 0.0	 0.0; % COW
	3933	 95.5	 11.0	 77.0	 -55.0	 1.012	 100.0	 1	 191.0	 0.0	 0.0	 0.0	 0.0	 0.0	 0.0	 0.0	 0.0	 0.0	 0.0	 0.0	 0.0; % NG
	3933	 657.0	 96.5	 500.0	 -307.0	 1.012	 100.0	 1	 1314.0	 0.0	 0.0	 0.0	 0.0	 0.0	 0.0	 0.0	 0.0	 0.0	 0.0	 0.0	 0.0; % NG
	3933	 1752.5	 107.5	 1256.0	 -1041.0	 1.012	 100.0	 1	 3505.0	 0.0	 0.0	 0.0	 0.0	 0.0	 0.0	 0.0	 0.0	 0.0	 0.0	 0.0	 0.0; % COW
	3933	 146.5	 1.0	 13.0	 -11.0	 1.012	 100.0	 1	 293.0	 0.0	 0.0	 0.0	 0.0	 0.0	 0.0	 0.0	 0.0	 0.0	 0.0	 0.0	 0.0; % NG
	3933	 -224.5	 0.25	 0.5	 0.0	 1.012	 100.0	 1	 0.0	 -449.0	 0.0	 0.0	 0.0	 0.0	 0.0	 0.0	 0.0	 0.0	 0.0	 0.0	 0.0; % NUC
	4039	 102.0	 0.0	 102.0	 -102.0	 1.121	 100.0	 1	 204.0	 0.0	 0.0	 0.0	 0.0	 0.0	 0.0	 0.0	 0.0	 0.0	 0.0	 0.0	 0.0; % COW
	4039	 1459.0	 0.0	 1459.0	 -1459.0	 1.121	 100.0	 1	 2918.0	 0.0	 0.0	 0.0	 0.0	 0.0	 0.0	 0.0	 0.0	 0.0	 0.0	 0.0	 0.0; % COW
	4039	 187.5	 0.0	 188.0	 -188.0	 1.121	 100.0	 1	 375.0	 0.0	 0.0	 0.0	 0.0	 0.0	 0.0	 0.0	 0.0	 0.0	 0.0	 0.0	 0.0; % NG
	4031	 501.5	 0.0	 502.0	 -502.0	 1.08	 100.0	 1	 1003.0	 0.0	 0.0	 0.0	 0.0	 0.0	 0.0	 0.0	 0.0	 0.0	 0.0	 0.0	 0.0; % COW
	4031	 489.0	 0.0	 489.0	 -489.0	 1.08	 100.0	 1	 978.0	 0.0	 0.0	 0.0	 0.0	 0.0	 0.0	 0.0	 0.0	 0.0	 0.0	 0.0	 0.0; % NUC
	4031	 37.5	 0.0	 38.0	 -38.0	 1.08	 100.0	 1	 75.0	 0.0	 0.0	 0.0	 0.0	 0.0	 0.0	 0.0	 0.0	 0.0	 0.0	 0.0	 0.0; % NG
	4031	 120.0	 0.0	 120.0	 -120.0	 1.08	 100.0	 1	 240.0	 0.0	 0.0	 0.0	 0.0	 0.0	 0.0	 0.0	 0.0	 0.0	 0.0	 0.0	 0.0; % NG
	4035	 255.0	 0.0	 255.0	 -255.0	 1.121	 100.0	 1	 510.0	 0.0	 0.0	 0.0	 0.0	 0.0	 0.0	 0.0	 0.0	 0.0	 0.0	 0.0	 0.0; % NG
	4035	 306.5	 0.0	 307.0	 -307.0	 1.121	 100.0	 1	 613.0	 0.0	 0.0	 0.0	 0.0	 0.0	 0.0	 0.0	 0.0	 0.0	 0.0	 0.0	 0.0; % COW
	4035	 1835.5	 0.0	 1836.0	 -1836.0	 1.121	 100.0	 1	 3671.0	 0.0	 0.0	 0.0	 0.0	 0.0	 0.0	 0.0	 0.0	 0.0	 0.0	 0.0	 0.0; % COW
	4035	 488.0	 0.0	 488.0	 -488.0	 1.121	 100.0	 1	 976.0	 0.0	 0.0	 0.0	 0.0	 0.0	 0.0	 0.0	 0.0	 0.0	 0.0	 0.0	 0.0; % NG
	4131	 6481.5	 0.0	 6482.0	 -6482.0	 1.128	 100.0	 1	 12963.0	 0.0	 0.0	 0.0	 0.0	 0.0	 0.0	 0.0	 0.0	 0.0	 0.0	 0.0	 0.0; % COW
	4131	 120.0	 0.0	 120.0	 -120.0	 1.128	 100.0	 1	 240.0	 0.0	 0.0	 0.0	 0.0	 0.0	 0.0	 0.0	 0.0	 0.0	 0.0	 0.0	 0.0; % NG
	4132	 1472.5	 0.0	 1473.0	 -1473.0	 1.096	 100.0	 1	 2945.0	 0.0	 0.0	 0.0	 0.0	 0.0	 0.0	 0.0	 0.0	 0.0	 0.0	 0.0	 0.0; % COW
	4132	 2846.5	 0.0	 2847.0	 -2847.0	 1.096	 100.0	 1	 5693.0	 0.0	 0.0	 0.0	 0.0	 0.0	 0.0	 0.0	 0.0	 0.0	 0.0	 0.0	 0.0; % COW
	4132	 580.0	 0.0	 580.0	 -580.0	 1.096	 100.0	 1	 1160.0	 0.0	 0.0	 0.0	 0.0	 0.0	 0.0	 0.0	 0.0	 0.0	 0.0	 0.0	 0.0; % COW
	4132	 230.5	 0.0	 231.0	 -231.0	 1.096	 100.0	 1	 461.0	 0.0	 0.0	 0.0	 0.0	 0.0	 0.0	 0.0	 0.0	 0.0	 0.0	 0.0	 0.0; % NG
	4132	 87.5	 0.0	 88.0	 -88.0	 1.096	 100.0	 1	 175.0	 0.0	 0.0	 0.0	 0.0	 0.0	 0.0	 0.0	 0.0	 0.0	 0.0	 0.0	 0.0; % NG
	4231	 728.0	 0.0	 728.0	 -728.0	 1.12	 100.0	 1	 1456.0	 0.0	 0.0	 0.0	 0.0	 0.0	 0.0	 0.0	 0.0	 0.0	 0.0	 0.0	 0.0; % COW
	4231	 658.5	 0.0	 659.0	 -659.0	 1.12	 100.0	 1	 1317.0	 0.0	 0.0	 0.0	 0.0	 0.0	 0.0	 0.0	 0.0	 0.0	 0.0	 0.0	 0.0; % NG
	4231	 1807.5	 0.0	 1808.0	 -1808.0	 1.12	 100.0	 1	 3615.0	 0.0	 0.0	 0.0	 0.0	 0.0	 0.0	 0.0	 0.0	 0.0	 0.0	 0.0	 0.0; % COW
	4231	 23.5	 0.0	 24.0	 -24.0	 1.12	 100.0	 1	 47.0	 0.0	 0.0	 0.0	 0.0	 0.0	 0.0	 0.0	 0.0	 0.0	 0.0	 0.0	 0.0; % NG
	4232	 592.0	 0.0	 592.0	 -592.0	 1.08	 100.0	 1	 1184.0	 0.0	 0.0	 0.0	 0.0	 0.0	 0.0	 0.0	 0.0	 0.0	 0.0	 0.0	 0.0; % COW
	4232	 286.5	 0.0	 287.0	 -287.0	 1.08	 100.0	 1	 573.0	 0.0	 0.0	 0.0	 0.0	 0.0	 0.0	 0.0	 0.0	 0.0	 0.0	 0.0	 0.0; % COW
	4232	 107.5	 0.0	 108.0	 -108.0	 1.08	 100.0	 1	 215.0	 0.0	 0.0	 0.0	 0.0	 0.0	 0.0	 0.0	 0.0	 0.0	 0.0	 0.0	 0.0; % NG
	5031	 605.0	 0.0	 605.0	 -605.0	 1.05	 100.0	 1	 1210.0	 0.0	 0.0	 0.0	 0.0	 0.0	 0.0	 0.0	 0.0	 0.0	 0.0	 0.0	 0.0; % NG
	5031	 4399.4	 0.0	 4399.0	 -4399.0	 1.05	 100.0	 1	 8798.8	 0.0	 0.0	 0.0	 0.0	 0.0	 0.0	 0.0	 0.0	 0.0	 0.0	 0.0	 0.0; % COW
	5032	 2977.0	 0.0	 2977.0	 -2977.0	 1.055	 100.0	 1	 5954.0	 0.0	 0.0	 0.0	 0.0	 0.0	 0.0	 0.0	 0.0	 0.0	 0.0	 0.0	 0.0; % COW
	5032	 2200.0	 0.0	 2200.0	 -2200.0	 1.055	 100.0	 1	 4400.0	 0.0	 0.0	 0.0	 0.0	 0.0	 0.0	 0.0	 0.0	 0.0	 0.0	 0.0	 0.0; % COW
	5032	 2205.1	 0.0	 2205.0	 -2205.0	 1.055	 100.0	 1	 4410.2	 0.0	 0.0	 0.0	 0.0	 0.0	 0.0	 0.0	 0.0	 0.0	 0.0	 0.0	 0.0; % COW
	5032	 54.0	 0.0	 54.0	 -54.0	 1.055	 100.0	 1	 108.0	 0.0	 0.0	 0.0	 0.0	 0.0	 0.0	 0.0	 0.0	 0.0	 0.0	 0.0	 0.0; % NG
	5032	 270.5	 0.0	 271.0	 -271.0	 1.055	 100.0	 1	 541.0	 0.0	 0.0	 0.0	 0.0	 0.0	 0.0	 0.0	 0.0	 0.0	 0.0	 0.0	 0.0; % COW
	6132	 7.5	 0.0	 8.0	 -8.0	 1.13	 100.0	 1	 15.0	 0.0	 0.0	 0.0	 0.0	 0.0	 0.0	 0.0	 0.0	 0.0	 0.0	 0.0	 0.0; % NG
	6132	 146.5	 0.0	 147.0	 -147.0	 1.13	 100.0	 1	 293.0	 0.0	 0.0	 0.0	 0.0	 0.0	 0.0	 0.0	 0.0	 0.0	 0.0	 0.0	 0.0; % NG
	6132	 1072.0	 0.0	 1072.0	 -1072.0	 1.13	 100.0	 1	 2144.0	 0.0	 0.0	 0.0	 0.0	 0.0	 0.0	 0.0	 0.0	 0.0	 0.0	 0.0	 0.0; % NG
	6132	 17.5	 0.0	 18.0	 -18.0	 1.13	 100.0	 1	 35.0	 0.0	 0.0	 0.0	 0.0	 0.0	 0.0	 0.0	 0.0	 0.0	 0.0	 0.0	 0.0; % PEL
	6132	 118.0	 0.0	 118.0	 -118.0	 1.13	 100.0	 1	 236.0	 0.0	 0.0	 0.0	 0.0	 0.0	 0.0	 0.0	 0.0	 0.0	 0.0	 0.0	 0.0; % NG
	6231	 1255.5	 0.0	 1256.0	 -1256.0	 1.12	 100.0	 1	 2511.0	 0.0	 0.0	 0.0	 0.0	 0.0	 0.0	 0.0	 0.0	 0.0	 0.0	 0.0	 0.0; % COW
	6231	 70.0	 0.0	 70.0	 -70.0	 1.12	 100.0	 1	 140.0	 0.0	 0.0	 0.0	 0.0	 0.0	 0.0	 0.0	 0.0	 0.0	 0.0	 0.0	 0.0; % NG
	6235	 63.5	 0.0	 64.0	 -64.0	 1.144	 100.0	 1	 127.0	 0.0	 0.0	 0.0	 0.0	 0.0	 0.0	 0.0	 0.0	 0.0	 0.0	 0.0	 0.0; % COW
	6235	 346.5	 0.0	 347.0	 -347.0	 1.144	 100.0	 1	 693.0	 0.0	 0.0	 0.0	 0.0	 0.0	 0.0	 0.0	 0.0	 0.0	 0.0	 0.0	 0.0; % COW
	6235	 95.0	 0.0	 95.0	 -95.0	 1.144	 100.0	 1	 190.0	 0.0	 0.0	 0.0	 0.0	 0.0	 0.0	 0.0	 0.0	 0.0	 0.0	 0.0	 0.0; % NG
	6333	 1671.0	 0.0	 1671.0	 -1671.0	 1.13	 100.0	 1	 3342.0	 0.0	 0.0	 0.0	 0.0	 0.0	 0.0	 0.0	 0.0	 0.0	 0.0	 0.0	 0.0; % COW
	6333	 124.0	 0.0	 124.0	 -124.0	 1.13	 100.0	 1	 248.0	 0.0	 0.0	 0.0	 0.0	 0.0	 0.0	 0.0	 0.0	 0.0	 0.0	 0.0	 0.0; % COW
	6335	 967.5	 0.0	 968.0	 -968.0	 1.06	 100.0	 1	 1935.0	 0.0	 0.0	 0.0	 0.0	 0.0	 0.0	 0.0	 0.0	 0.0	 0.0	 0.0	 0.0; % COW
	6335	 329.5	 0.0	 330.0	 -330.0	 1.06	 100.0	 1	 659.0	 0.0	 0.0	 0.0	 0.0	 0.0	 0.0	 0.0	 0.0	 0.0	 0.0	 0.0	 0.0; % COW
	6335	 406.0	 0.0	 406.0	 -406.0	 1.06	 100.0	 1	 812.0	 0.0	 0.0	 0.0	 0.0	 0.0	 0.0	 0.0	 0.0	 0.0	 0.0	 0.0	 0.0; % COW
	6433	 282.5	 0.0	 283.0	 -283.0	 1.11	 100.0	 1	 565.0	 0.0	 0.0	 0.0	 0.0	 0.0	 0.0	 0.0	 0.0	 0.0	 0.0	 0.0	 0.0; % COW
	6433	 59.0	 0.0	 59.0	 -59.0	 1.11	 100.0	 1	 118.0	 0.0	 0.0	 0.0	 0.0	 0.0	 0.0	 0.0	 0.0	 0.0	 0.0	 0.0	 0.0; % NG
	6433	 536.0	 0.0	 536.0	 -536.0	 1.11	 100.0	 1	 1072.0	 0.0	 0.0	 0.0	 0.0	 0.0	 0.0	 0.0	 0.0	 0.0	 0.0	 0.0	 0.0; % PEL
	6433	 11.5	 0.0	 12.0	 -12.0	 1.11	 100.0	 1	 23.0	 0.0	 0.0	 0.0	 0.0	 0.0	 0.0	 0.0	 0.0	 0.0	 0.0	 0.0	 0.0; % COW
	6433	 25.0	 0.0	 25.0	 -25.0	 1.11	 100.0	 1	 50.0	 0.0	 0.0	 0.0	 0.0	 0.0	 0.0	 0.0	 0.0	 0.0	 0.0	 0.0	 0.0; % NG
	6533	 1923.5	 0.0	 1924.0	 -1924.0	 1.065	 100.0	 1	 3847.0	 0.0	 0.0	 0.0	 0.0	 0.0	 0.0	 0.0	 0.0	 0.0	 0.0	 0.0	 0.0; % COW
	6533	 18.5	 0.0	 19.0	 -19.0	 1.065	 100.0	 1	 37.0	 0.0	 0.0	 0.0	 0.0	 0.0	 0.0	 0.0	 0.0	 0.0	 0.0	 0.0	 0.0; % NG
	6533	 880.0	 0.0	 880.0	 -880.0	 1.065	 100.0	 1	 1760.0	 0.0	 0.0	 0.0	 0.0	 0.0	 0.0	 0.0	 0.0	 0.0	 0.0	 0.0	 0.0; % COW
	6533	 19.5	 0.0	 20.0	 -20.0	 1.065	 100.0	 1	 39.0	 0.0	 0.0	 0.0	 0.0	 0.0	 0.0	 0.0	 0.0	 0.0	 0.0	 0.0	 0.0; % NG
	6533	 30.5	 0.0	 31.0	 -31.0	 1.065	 100.0	 1	 61.0	 0.0	 0.0	 0.0	 0.0	 0.0	 0.0	 0.0	 0.0	 0.0	 0.0	 0.0	 0.0; % NG
	7031	 1418.5	 0.0	 1419.0	 -1419.0	 1.0	 100.0	 1	 2837.0	 0.0	 0.0	 0.0	 0.0	 0.0	 0.0	 0.0	 0.0	 0.0	 0.0	 0.0	 0.0; % COW
	7031	 2092.0	 0.0	 2092.0	 -2092.0	 1.0	 100.0	 1	 4184.0	 0.0	 0.0	 0.0	 0.0	 0.0	 0.0	 0.0	 0.0	 0.0	 0.0	 0.0	 0.0; % NUC
	7031	 0.0	 0.0	 167.0	 -167.0	 1.0	 100.0	 1	 333.0	 -333.0	 0.0	 0.0	 0.0	 0.0	 0.0	 0.0	 0.0	 0.0	 0.0	 0.0	 0.0; % COW
	7031	 298.5	 0.0	 299.0	 -299.0	 1.0	 100.0	 1	 597.0	 0.0	 0.0	 0.0	 0.0	 0.0	 0.0	 0.0	 0.0	 0.0	 0.0	 0.0	 0.0; % COW
	7031	 0.05	 0.0	 1000.0	 -1000.0	 1.0	 100.0	 1	 0.1	 0.0	 0.0	 0.0	 0.0	 0.0	 0.0	 0.0	 0.0	 0.0	 0.0	 0.0	 0.0; % NG
	7032	 826.0	 0.0	 826.0	 -826.0	 1.015	 100.0	 1	 1652.0	 0.0	 0.0	 0.0	 0.0	 0.0	 0.0	 0.0	 0.0	 0.0	 0.0	 0.0	 0.0; % NG
	7032	 489.0	 0.0	 489.0	 -489.0	 1.015	 100.0	 1	 978.0	 0.0	 0.0	 0.0	 0.0	 0.0	 0.0	 0.0	 0.0	 0.0	 0.0	 0.0	 0.0; % COW
	7032	 345.5	 0.0	 346.0	 -346.0	 1.015	 100.0	 1	 691.0	 0.0	 0.0	 0.0	 0.0	 0.0	 0.0	 0.0	 0.0	 0.0	 0.0	 0.0	 0.0; % COW
	7032	 0.0	 0.0	 23.0	 -23.0	 1.015	 100.0	 1	 200.0	 -200.0	 0.0	 0.0	 0.0	 0.0	 0.0	 0.0	 0.0	 0.0	 0.0	 0.0	 0.0; % COW
	8033	 786.0	 0.0	 786.0	 -786.0	 1.075	 100.0	 1	 1572.0	 0.0	 0.0	 0.0	 0.0	 0.0	 0.0	 0.0	 0.0	 0.0	 0.0	 0.0	 0.0; % PEL
	8034	 1280.0	 0.0	 1280.0	 -1280.0	 1.0	 100.0	 1	 2560.0	 0.0	 0.0	 0.0	 0.0	 0.0	 0.0	 0.0	 0.0	 0.0	 0.0	 0.0	 0.0; % COW
	8034	 344.0	 0.0	 344.0	 -344.0	 1.0	 100.0	 1	 688.0	 0.0	 0.0	 0.0	 0.0	 0.0	 0.0	 0.0	 0.0	 0.0	 0.0	 0.0	 0.0; % COW
];

%% generator cost data
%	2	startup	shutdown	n	c(n-1)	...	c0
mpc.gencost = [
	2	 0.0	 0.0	 3	   0.000000	  24.393520	   0.000000; % COW
	2	 0.0	 0.0	 3	   0.000000	  18.801900	   0.000000; % COW
	2	 0.0	 0.0	 3	   0.000000	  60.102763	   0.000000; % NG
	2	 0.0	 0.0	 3	   0.000000	   8.048101	   0.000000; % NUC
	2	 0.0	 0.0	 3	   0.000000	   7.532251	   0.000000; % NUC
	2	 0.0	 0.0	 3	   0.000000	  32.636440	   0.000000; % COW
	2	 0.0	 0.0	 3	   0.000000	  31.448409	   0.000000; % COW
	2	 0.0	 0.0	 3	   0.000000	  35.907634	   0.000000; % NG
	2	 0.0	 0.0	 3	   0.000000	  21.053140	   0.000000; % COW
	2	 0.0	 0.0	 3	   0.000000	  31.527892	   0.000000; % COW
	2	 0.0	 0.0	 3	   0.000000	  25.558137	   0.000000; % COW
	2	 0.0	 0.0	 3	   0.000000	  28.876100	   0.000000; % COW
	2	 0.0	 0.0	 3	   0.000000	  34.787505	   0.000000; % COW
	2	 0.0	 0.0	 3	   0.000000	   7.976160	   0.000000; % NUC
	2	 0.0	 0.0	 3	   0.000000	 120.959591	   0.000000; % PEL
	2	 0.0	 0.0	 3	   0.000000	  39.730027	   0.000000; % COW
	2	 0.0	 0.0	 3	   0.000000	  26.321067	   0.000000; % COW
	2	 0.0	 0.0	 3	   0.000000	 116.911795	   0.000000; % PEL
	2	 0.0	 0.0	 3	   0.000000	   7.204570	   0.000000; % NUC
	2	 0.0	 0.0	 3	   0.000000	  13.218963	   0.000000; % COW
	2	 0.0	 0.0	 3	   0.000000	  37.664966	   0.000000; % COW
	2	 0.0	 0.0	 3	   0.000000	  47.664547	   0.000000; % NG
	2	 0.0	 0.0	 3	   0.000000	  59.756930	   0.000000; % NG
	2	 0.0	 0.0	 3	   0.000000	  33.380307	   0.000000; % NG
	2	 0.0	 0.0	 3	   0.000000	  28.720268	   0.000000; % COW
	2	 0.0	 0.0	 3	   0.000000	  25.965664	   0.000000; % COW
	2	 0.0	 0.0	 3	   0.000000	  50.590540	   0.000000; % NG
	2	 0.0	 0.0	 3	   0.000000	  23.341498	   0.000000; % COW
	2	 0.0	 0.0	 3	   0.000000	  26.103609	   0.000000; % COW
	2	 0.0	 0.0	 3	   0.000000	 135.753640	   0.000000; % PEL
	2	 0.0	 0.0	 3	   0.000000	  29.862463	   0.000000; % COW
	2	 0.0	 0.0	 3	   0.000000	  27.926242	   0.000000; % COW
	2	 0.0	 0.0	 3	   0.000000	  42.487383	   0.000000; % COW
	2	 0.0	 0.0	 3	   0.000000	  22.911230	   0.000000; % COW
	2	 0.0	 0.0	 3	   0.000000	  22.892828	   0.000000; % COW
	2	 0.0	 0.0	 3	   0.000000	   0.000000	   0.000000; % SYNC
	2	 0.0	 0.0	 3	   0.000000	  32.916334	   0.000000; % COW
	2	 0.0	 0.0	 3	   0.000000	  25.405151	   0.000000; % COW
	2	 0.0	 0.0	 3	   0.000000	  18.672714	   0.000000; % COW
	2	 0.0	 0.0	 3	   0.000000	  38.445748	   0.000000; % NG
	2	 0.0	 0.0	 3	   0.000000	  47.576744	   0.000000; % NG
	2	 0.0	 0.0	 3	   0.000000	  33.751574	   0.000000; % COW
	2	 0.0	 0.0	 3	   0.000000	  68.932478	   0.000000; % NG
	2	 0.0	 0.0	 3	   0.000000	 141.392226	   0.000000; % PEL
	2	 0.0	 0.0	 3	   0.000000	  33.278725	   0.000000; % NG
	2	 0.0	 0.0	 3	   0.000000	 187.895200	   0.000000; % PEL
	2	 0.0	 0.0	 3	   0.000000	  51.637905	   0.000000; % NG
	2	 0.0	 0.0	 3	   0.000000	  33.521048	   0.000000; % COW
	2	 0.0	 0.0	 3	   0.000000	  11.000143	   0.000000; % COW
	2	 0.0	 0.0	 3	   0.000000	  35.786058	   0.000000; % NG
	2	 0.0	 0.0	 3	   0.000000	  36.459343	   0.000000; % COW
	2	 0.0	 0.0	 3	   0.000000	  41.942379	   0.000000; % NG
	2	 0.0	 0.0	 3	   0.000000	  23.998822	   0.000000; % COW
	2	 0.0	 0.0	 3	   0.000000	  20.196639	   0.000000; % COW
	2	 0.0	 0.0	 3	   0.000000	  27.247540	   0.000000; % COW
	2	 0.0	 0.0	 3	   0.000000	  23.945061	   0.000000; % COW
	2	 0.0	 0.0	 3	   0.000000	  33.285233	   0.000000; % NG
	2	 0.0	 0.0	 3	   0.000000	 132.896815	   0.000000; % PEL
	2	 0.0	 0.0	 3	   0.000000	  48.769149	   0.000000; % NG
	2	 0.0	 0.0	 3	   0.000000	  41.683024	   0.000000; % NG
	2	 0.0	 0.0	 3	   0.000000	  54.153703	   0.000000; % NG
	2	 0.0	 0.0	 3	   0.000000	  19.250348	   0.000000; % COW
	2	 0.0	 0.0	 3	   0.000000	  27.765370	   0.000000; % COW
	2	 0.0	 0.0	 3	   0.000000	   0.000000	   0.000000; % SYNC
	2	 0.0	 0.0	 3	   0.000000	  39.519424	   0.000000; % COW
	2	 0.0	 0.0	 3	   0.000000	  61.894729	   0.000000; % NG
	2	 0.0	 0.0	 3	   0.000000	  32.993218	   0.000000; % COW
	2	 0.0	 0.0	 3	   0.000000	  23.355886	   0.000000; % COW
	2	 0.0	 0.0	 3	   0.000000	  35.070316	   0.000000; % COW
	2	 0.0	 0.0	 3	   0.000000	  67.477890	   0.000000; % NG
	2	 0.0	 0.0	 3	   0.000000	  51.184835	   0.000000; % NG
	2	 0.0	 0.0	 3	   0.000000	  12.491355	   0.000000; % COW
	2	 0.0	 0.0	 3	   0.000000	  41.945944	   0.000000; % NG
	2	 0.0	 0.0	 3	   0.000000	   7.518943	   0.000000; % NUC
	2	 0.0	 0.0	 3	   0.000000	  15.642333	   0.000000; % COW
	2	 0.0	 0.0	 3	   0.000000	  32.685415	   0.000000; % COW
	2	 0.0	 0.0	 3	   0.000000	  44.861665	   0.000000; % NG
	2	 0.0	 0.0	 3	   0.000000	  29.335678	   0.000000; % COW
	2	 0.0	 0.0	 3	   0.000000	   8.057015	   0.000000; % NUC
	2	 0.0	 0.0	 3	   0.000000	  28.660619	   0.000000; % NG
	2	 0.0	 0.0	 3	   0.000000	  45.397258	   0.000000; % NG
	2	 0.0	 0.0	 3	   0.000000	  28.355360	   0.000000; % NG
	2	 0.0	 0.0	 3	   0.000000	  23.287177	   0.000000; % COW
	2	 0.0	 0.0	 3	   0.000000	  24.023741	   0.000000; % COW
	2	 0.0	 0.0	 3	   0.000000	  44.119679	   0.000000; % NG
	2	 0.0	 0.0	 3	   0.000000	  32.045166	   0.000000; % COW
	2	 0.0	 0.0	 3	   0.000000	  58.451130	   0.000000; % NG
	2	 0.0	 0.0	 3	   0.000000	  21.142511	   0.000000; % COW
	2	 0.0	 0.0	 3	   0.000000	  15.142507	   0.000000; % COW
	2	 0.0	 0.0	 3	   0.000000	  31.845804	   0.000000; % COW
	2	 0.0	 0.0	 3	   0.000000	  55.655433	   0.000000; % NG
	2	 0.0	 0.0	 3	   0.000000	  50.874917	   0.000000; % NG
	2	 0.0	 0.0	 3	   0.000000	  16.022778	   0.000000; % COW
	2	 0.0	 0.0	 3	   0.000000	  29.224295	   0.000000; % NG
	2	 0.0	 0.0	 3	   0.000000	  42.277488	   0.000000; % COW
	2	 0.0	 0.0	 3	   0.000000	  28.567219	   0.000000; % NG
	2	 0.0	 0.0	 3	   0.000000	  38.694479	   0.000000; % COW
	2	 0.0	 0.0	 3	   0.000000	  16.909977	   0.000000; % COW
	2	 0.0	 0.0	 3	   0.000000	  52.399186	   0.000000; % NG
	2	 0.0	 0.0	 3	   0.000000	  40.945020	   0.000000; % NG
	2	 0.0	 0.0	 3	   0.000000	  27.829253	   0.000000; % COW
	2	 0.0	 0.0	 3	   0.000000	  25.585751	   0.000000; % COW
	2	 0.0	 0.0	 3	   0.000000	  28.537708	   0.000000; % COW
	2	 0.0	 0.0	 3	   0.000000	  13.477471	   0.000000; % COW
	2	 0.0	 0.0	 3	   0.000000	  42.281081	   0.000000; % NG
	2	 0.0	 0.0	 3	   0.000000	  29.276914	   0.000000; % COW
	2	 0.0	 0.0	 3	   0.000000	  49.062928	   0.000000; % NG
	2	 0.0	 0.0	 3	   0.000000	  58.852160	   0.000000; % NG
	2	 0.0	 0.0	 3	   0.000000	  44.238556	   0.000000; % NG
	2	 0.0	 0.0	 3	   0.000000	 120.368428	   0.000000; % PEL
	2	 0.0	 0.0	 3	   0.000000	  49.221943	   0.000000; % NG
	2	 0.0	 0.0	 3	   0.000000	  33.747916	   0.000000; % COW
	2	 0.0	 0.0	 3	   0.000000	  42.388441	   0.000000; % NG
	2	 0.0	 0.0	 3	   0.000000	  37.605963	   0.000000; % COW
	2	 0.0	 0.0	 3	   0.000000	  31.525369	   0.000000; % COW
	2	 0.0	 0.0	 3	   0.000000	  41.118225	   0.000000; % NG
	2	 0.0	 0.0	 3	   0.000000	  25.185235	   0.000000; % COW
	2	 0.0	 0.0	 3	   0.000000	  37.813264	   0.000000; % COW
	2	 0.0	 0.0	 3	   0.000000	  32.460983	   0.000000; % COW
	2	 0.0	 0.0	 3	   0.000000	  25.169555	   0.000000; % COW
	2	 0.0	 0.0	 3	   0.000000	  13.504585	   0.000000; % COW
	2	 0.0	 0.0	 3	   0.000000	  30.238936	   0.000000; % COW
	2	 0.0	 0.0	 3	   0.000000	  40.756741	   0.000000; % NG
	2	 0.0	 0.0	 3	   0.000000	 115.631122	   0.000000; % PEL
	2	 0.0	 0.0	 3	   0.000000	  24.537326	   0.000000; % COW
	2	 0.0	 0.0	 3	   0.000000	  39.598654	   0.000000; % NG
	2	 0.0	 0.0	 3	   0.000000	  20.416875	   0.000000; % COW
	2	 0.0	 0.0	 3	   0.000000	  40.437874	   0.000000; % NG
	2	 0.0	 0.0	 3	   0.000000	  21.521265	   0.000000; % COW
	2	 0.0	 0.0	 3	   0.000000	  38.858118	   0.000000; % NG
	2	 0.0	 0.0	 3	   0.000000	  48.633718	   0.000000; % NG
	2	 0.0	 0.0	 3	   0.000000	  27.906177	   0.000000; % COW
	2	 0.0	 0.0	 3	   0.000000	   7.526452	   0.000000; % NUC
	2	 0.0	 0.0	 3	   0.000000	  38.684873	   0.000000; % COW
	2	 0.0	 0.0	 3	   0.000000	  40.249356	   0.000000; % COW
	2	 0.0	 0.0	 3	   0.000000	  32.429154	   0.000000; % NG
	2	 0.0	 0.0	 3	   0.000000	  54.015575	   0.000000; % NG
	2	 0.0	 0.0	 3	   0.000000	  32.143203	   0.000000; % COW
	2	 0.0	 0.0	 3	   0.000000	  11.443281	   0.000000; % COW
	2	 0.0	 0.0	 3	   0.000000	  25.936103	   0.000000; % COW
	2	 0.0	 0.0	 3	   0.000000	 138.599598	   0.000000; % PEL
	2	 0.0	 0.0	 3	   0.000000	  24.947060	   0.000000; % COW
	2	 0.0	 0.0	 3	   0.000000	  25.688951	   0.000000; % COW
];

%% branch data
%	fbus	tbus	r	x	b	rateA	rateB	rateC	ratio	angle	status	angmin	angmax
mpc.branch = [
	1001	 1201	 0.00177	 0.03169	 3.3446	 996	 996	 996	 0.0	 0.0	 1	 -30.0	 30.0;
	1001	 1202	 0.0108	 0.0965	 0.3296	 326	 326	 326	 0.0	 0.0	 1	 -30.0	 30.0;
	1002	 1004	 0.0005	 0.0053	 0.0882	 5934	 5934	 5934	 0.0	 0.0	 1	 -30.0	 30.0;
	1002	 1102	 0.00179	 0.01988	 2.576	 1583	 1583	 1583	 0.0	 0.0	 1	 -30.0	 30.0;
	1002	 1102	 0.00179	 0.01988	 2.576	 1583	 1583	 1583	 0.0	 0.0	 1	 -30.0	 30.0;
	1002	 6506	 0.0048	 0.0436	 0.7078	 721	 721	 721	 0.0	 0.0	 1	 -30.0	 30.0;
	1004	 7001	 0.03903	 0.27403	 2.0	 115	 115	 115	 0.0	 0.0	 1	 -30.0	 30.0;
	1004	 7002	 0.00977	 0.11	 2.0	 287	 287	 287	 0.0	 0.0	 1	 -30.0	 30.0;
	1101	 1401	 0.0028	 0.0211	 1.0194	 1485	 1485	 1485	 0.0	 0.0	 1	 -30.0	 30.0;
	1101	 1401	 0.0028	 0.0211	 1.0194	 1485	 1485	 1485	 0.0	 0.0	 1	 -30.0	 30.0;
	1201	 1202	 0.00077	 0.00536	 1.39842	 5834	 5834	 5834	 0.0	 0.0	 1	 -30.0	 30.0;
	1201	 1402	 0.00179	 0.02592	 3.3922	 1216	 1216	 1216	 0.0	 0.0	 1	 -30.0	 30.0;
	1201	 2901	 0.00207	 0.01369	 3.9516	 2282	 2282	 2282	 0.0	 0.0	 1	 -30.0	 30.0;
	1202	 1302	 0.0028	 0.0211	 1.0194	 1485	 1485	 1485	 0.0	 0.0	 1	 -30.0	 30.0;
	1202	 1402	 0.00241	 0.03489	 4.8656	 904	 904	 904	 0.0	 0.0	 1	 -30.0	 30.0;
	1301	 1302	 0.0028	 0.0211	 1.0194	 1485	 1485	 1485	 0.0	 0.0	 1	 -30.0	 30.0;
	1301	 1402	 0.0028	 0.0211	 1.0194	 1485	 1485	 1485	 0.0	 0.0	 1	 -30.0	 30.0;
	1301	 1402	 0.0062	 0.0673	 1.1156	 468	 468	 468	 0.0	 0.0	 1	 -30.0	 30.0;
	1301	 2603	 0.00179	 0.02524	 0.53546	 1249	 1249	 1249	 0.0	 0.0	 1	 -30.0	 30.0;
	1301	 2901	 0.0108	 0.0965	 0.3296	 326	 326	 326	 0.0	 0.0	 1	 -30.0	 30.0;
	1303	 6507	 0.00811	 0.1369	 1.1156	 231	 231	 231	 0.0	 0.0	 1	 -30.0	 30.0;
	1401	 1402	 0.0004	 0.0096	 0.9038	 3288	 3288	 3288	 0.0	 0.0	 1	 -30.0	 30.0;
	1401	 1402	 0.0004	 0.0096	 0.9038	 3288	 3288	 3288	 0.0	 0.0	 1	 -30.0	 30.0;
	1401	 2301	 0.00259	 0.02967	 2.153	 1061	 1061	 1061	 0.0	 0.0	 1	 -30.0	 30.0;
	1401	 2400	 0.00259	 0.02967	 2.153	 1061	 1061	 1061	 0.0	 0.0	 1	 -30.0	 30.0;
	1403	 2100	 0.00845	 0.07034	 0.15954	 446	 446	 446	 0.0	 0.0	 1	 -30.0	 30.0;
	2000	 2202	 0.00138	 0.05399	 0.15252	 585	 585	 585	 0.0	 0.0	 1	 -30.0	 30.0;
	2000	 2302	 0.00138	 0.05399	 0.15252	 585	 585	 585	 0.0	 0.0	 1	 -30.0	 30.0;
	2100	 2302	 0.00845	 0.07034	 0.15954	 446	 446	 446	 0.0	 0.0	 1	 -30.0	 30.0;
	2201	 2301	 0.00179	 0.02524	 2.153	 1249	 1249	 1249	 0.0	 0.0	 1	 -30.0	 30.0;
	2202	 2203	 0.00312	 0.02886	 0.15252	 1089	 986.0	 986.0	 0.0	 0.0	 1	 -30.0	 30.0;
	2202	 2203	 0.00312	 0.02886	 0.15252	 1089	 986.0	 986.0	 0.0	 0.0	 1	 -30.0	 30.0;
	2202	 2503	 0.00312	 0.02886	 0.15252	 1089	 986.0	 986.0	 0.0	 0.0	 1	 -30.0	 30.0;
	2203	 2503	 0.00312	 0.02886	 0.15252	 1089	 986.0	 986.0	 0.0	 0.0	 1	 -30.0	 30.0;
	2203	 2503	 0.00312	 0.02886	 0.15252	 1089	 986.0	 986.0	 0.0	 0.0	 1	 -30.0	 30.0;
	2400	 2403	 0.00042	 0.00905	 0.66794	 3487	 3487	 3487	 0.0	 0.0	 1	 -30.0	 30.0;
	2401	 2402	 0.00028	 0.00753	 0.51736	 4192	 4192	 3600.0	 0.0	 0.0	 1	 -30.0	 30.0;
	2401	 2402	 0.00035	 0.0075	 0.5536	 4208	 4208	 3600.0	 0.0	 0.0	 1	 -30.0	 30.0;
	2401	 2404	 0.00044	 0.01125	 0.8292	 2806	 2806	 2806	 0.0	 0.0	 1	 -30.0	 30.0;
	2401	 2404	 0.00044	 0.01125	 0.8292	 2806	 2806	 2806	 0.0	 0.0	 1	 -30.0	 30.0;
	2401	 2501	 0.0006	 0.0128	 0.9462	 2466	 2466	 2466	 0.0	 0.0	 1	 -30.0	 30.0;
	2401	 2603	 0.0002	 0.0041	 0.2962	 7696	 7696	 7696	 0.0	 0.0	 1	 -30.0	 30.0;
	2401	 2901	 0.00193	 0.02779	 4.6712	 1134	 1134	 1134	 0.0	 0.0	 1	 -30.0	 30.0;
	2401	 2902	 0.0019	 0.031	 4.1402	 1018	 1018	 1018	 0.0	 0.0	 1	 -30.0	 30.0;
	2402	 2501	 0.00021	 0.00457	 0.32336	 6905	 6905	 3600.0	 0.0	 0.0	 1	 -30.0	 30.0;
	2403	 2501	 0.0004	 0.0093	 0.6856	 3394	 3394	 3394	 0.0	 0.0	 1	 -30.0	 30.0;
	2404	 3893	 0.0	 -0.00935	 0.0	 3379	 3379	 2134.0	 0.0	 0.0	 1	 -30.0	 30.0;
	2404	 3895	 0.0	 -0.00935	 0.0	 3379	 3379	 2134.0	 0.0	 0.0	 1	 -30.0	 30.0;
	2404	 3897	 0.0	 -0.0084	 0.0	 3761	 3761	 2100.0	 0.0	 0.0	 1	 -30.0	 30.0;
	2405	 2406	 0.0014	 0.0264	 0.102	 1195	 1195	 1195	 0.0	 0.0	 1	 -30.0	 30.0;
	2405	 2410	 0.00065	 0.01187	 0.04672	 2658	 2658	 2658	 0.0	 0.0	 1	 -30.0	 30.0;
	2405	 2410	 0.00065	 0.01187	 0.04672	 2658	 2658	 2658	 0.0	 0.0	 1	 -30.0	 30.0;
	2406	 2408	 0.0019	 0.0258	 0.0984	 1222	 1222	 1222	 0.0	 0.0	 1	 -30.0	 30.0;
	2406	 2410	 0.00845	 0.07034	 0.15954	 446	 446	 446	 0.0	 0.0	 1	 -30.0	 30.0;
	2407	 2408	 0.0011	 0.0127	 0.048	 2478	 2478	 2320.0	 0.0	 0.0	 1	 -30.0	 30.0;
	2408	 2409	 0.00138	 0.05399	 0.15252	 585	 585	 585	 0.0	 0.0	 1	 -30.0	 30.0;
	2408	 2409	 0.00138	 0.05399	 0.15252	 585	 585	 585	 0.0	 0.0	 1	 -30.0	 30.0;
	2408	 2411	 0.0032	 0.0395	 0.144	 798	 798	 798	 0.0	 0.0	 1	 -30.0	 30.0;
	2408	 2502	 0.00312	 0.02886	 0.15252	 1089	 986.0	 986.0	 0.0	 0.0	 1	 -30.0	 30.0;
	2409	 2502	 0.00312	 0.02886	 0.15252	 1089	 986.0	 986.0	 0.0	 0.0	 1	 -30.0	 30.0;
	2409	 2503	 0.00312	 0.02886	 0.15252	 1089	 986.0	 986.0	 0.0	 0.0	 1	 -30.0	 30.0;
	2410	 2411	 0.00285	 0.03649	 0.12656	 864	 864	 864	 0.0	 0.0	 1	 -30.0	 30.0;
	2410	 2411	 0.00138	 0.03399	 0.11252	 929	 929	 929	 0.0	 0.0	 1	 -30.0	 30.0;
	2502	 2503	 0.00312	 0.02886	 0.15252	 1089	 986.0	 986.0	 0.0	 0.0	 1	 -30.0	 30.0;
	2502	 2503	 0.00312	 0.02886	 0.15252	 1089	 986.0	 986.0	 0.0	 0.0	 1	 -30.0	 30.0;
	2901	 2902	 0.00056	 0.01415	 1.0429	 2231	 2231	 2231	 0.0	 0.0	 1	 -30.0	 30.0;
	2600	 2602	 0.00082	 0.01668	 1.18802	 1892	 1892	 1892	 0.0	 0.0	 1	 -30.0	 30.0;
	2600	 2603	 0.0	 0.00159	 0.12002	 19867	 19867	 19867	 0.0	 0.0	 1	 -30.0	 30.0;
	2600	 2603	 0.0	 0.00159	 0.12002	 19867	 19867	 19867	 0.0	 0.0	 1	 -30.0	 30.0;
	2600	 2601	 0.00074	 0.01861	 1.40264	 1696	 1696	 1696	 0.0	 0.0	 1	 -30.0	 30.0;
	2601	 2603	 0.00083	 0.01884	 1.66668	 1675	 1675	 1675	 0.0	 0.0	 1	 -30.0	 30.0;
	2603	 2901	 0.00179	 0.02524	 0.53546	 1249	 1249	 1249	 0.0	 0.0	 1	 -30.0	 30.0;
	2604	 6404	 0.0108	 0.0965	 0.3296	 326	 326	 326	 0.0	 0.0	 1	 -30.0	 30.0;
	2604	 6504	 0.0018	 0.0245	 0.4392	 1286	 1286	 1286	 0.0	 0.0	 1	 -30.0	 30.0;
	2604	 6504	 0.0018	 0.0245	 0.4392	 1286	 1286	 1286	 0.0	 0.0	 1	 -30.0	 30.0;
	2605	 2607	 0.0107	 0.07905	 0.3667	 396	 396	 396	 0.0	 0.0	 1	 -30.0	 30.0;
	2606	 2607	 0.0107	 0.07905	 0.3667	 396	 396	 396	 0.0	 0.0	 1	 -30.0	 30.0;
	2608	 2611	 0.00221	 0.03346	 0.07338	 942	 942	 942	 0.0	 0.0	 1	 -30.0	 30.0;
	2608	 2612	 0.0029	 0.038	 0.0824	 829	 829	 829	 0.0	 0.0	 1	 -30.0	 30.0;
	2608	 2618	 0.00309	 0.04677	 0.1008	 674	 674	 674	 0.0	 0.0	 1	 -30.0	 30.0;
	2608	 2619	 0.00226	 0.03422	 0.07506	 922	 922	 922	 0.0	 0.0	 1	 -30.0	 30.0;
	2609	 2615	 0.00047	 0.00723	 0.01624	 4360	 4360	 4360	 0.0	 0.0	 1	 -30.0	 30.0;
	2609	 2617	 0.00035	 0.00536	 0.01204	 5881	 5881	 5881	 0.0	 0.0	 1	 -30.0	 30.0;
	2610	 2613	 0.0022	 0.03422	 0.07716	 922	 922	 922	 0.0	 0.0	 1	 -30.0	 30.0;
	2610	 2613	 0.00238	 0.03669	 0.08284	 860	 860	 860	 0.0	 0.0	 1	 -30.0	 30.0;
	2610	 2616	 0.00201	 0.03074	 0.06886	 1026	 1026	 1026	 0.0	 0.0	 1	 -30.0	 30.0;
	2610	 2617	 0.00281	 0.04296	 0.09648	 734	 734	 734	 0.0	 0.0	 1	 -30.0	 30.0;
	2611	 2612	 0.00029	 0.00434	 0.0095	 7262	 7262	 7262	 0.0	 0.0	 1	 -30.0	 30.0;
	2612	 2615	 0.00229	 0.01583	 0.0306	 1975	 1975	 1975	 0.0	 0.0	 1	 -30.0	 30.0;
	2612	 2615	 0.00229	 0.01583	 0.0306	 1975	 1975	 1975	 0.0	 0.0	 1	 -30.0	 30.0;
	2612	 2618	 0.00141	 0.00967	 0.0194	 3233	 3233	 3233	 0.0	 0.0	 1	 -30.0	 30.0;
	2612	 2618	 0.00141	 0.00967	 0.0194	 3233	 3233	 3233	 0.0	 0.0	 1	 -30.0	 30.0;
	2612	 2618	 0.00161	 0.00971	 0.01928	 3210	 3210	 3210	 0.0	 0.0	 1	 -30.0	 30.0;
	2612	 2618	 0.00161	 0.00971	 0.01928	 3210	 3210	 3210	 0.0	 0.0	 1	 -30.0	 30.0;
	2612	 2619	 0.00027	 0.00393	 0.00918	 8019	 8019	 8019	 0.0	 0.0	 1	 -30.0	 30.0;
	2612	 2619	 0.00027	 0.00393	 0.00918	 8019	 8019	 8019	 0.0	 0.0	 1	 -30.0	 30.0;
	2612	 2619	 0.00027	 0.00393	 0.00918	 8019	 8019	 8019	 0.0	 0.0	 1	 -30.0	 30.0;
	2612	 2620	 0.00138	 0.01116	 0.0247	 2810	 2810	 2810	 0.0	 0.0	 1	 -30.0	 30.0;
	2612	 2620	 0.00138	 0.01116	 0.0247	 2810	 2810	 2810	 0.0	 0.0	 1	 -30.0	 30.0;
	2613	 2616	 0.00037	 0.00366	 0.0083	 8587	 8587	 8587	 0.0	 0.0	 1	 -30.0	 30.0;
	2613	 2617	 0.00055	 0.00586	 0.01246	 5367	 5367	 5367	 0.0	 0.0	 1	 -30.0	 30.0;
	2614	 2616	 0.00073	 0.01025	 0.02558	 3074	 3074	 3074	 0.0	 0.0	 1	 -30.0	 30.0;
	2614	 2616	 0.00073	 0.01025	 0.02558	 3074	 3074	 3074	 0.0	 0.0	 1	 -30.0	 30.0;
	2615	 2617	 0.00119	 0.01244	 0.02798	 2528	 2528	 2528	 0.0	 0.0	 1	 -30.0	 30.0;
	2615	 2617	 0.00119	 0.01244	 0.02798	 2528	 2528	 2528	 0.0	 0.0	 1	 -30.0	 30.0;
	2615	 2620	 0.00128	 0.00979	 0.0212	 3200	 3200	 3200	 0.0	 0.0	 1	 -30.0	 30.0;
	2616	 2617	 0.0011	 0.01189	 0.02514	 2646	 2646	 2646	 0.0	 0.0	 1	 -30.0	 30.0;
	3101	 3102	 0.0011	 0.0127	 0.048	 2478	 1120.0	 1120.0	 0.0	 0.0	 1	 -30.0	 30.0;
	3101	 3102	 0.0011	 0.0127	 0.048	 2478	 1120.0	 1120.0	 0.0	 0.0	 1	 -30.0	 30.0;
	3102	 3103	 0.0011	 0.0127	 0.048	 2478	 1120.0	 1120.0	 0.0	 0.0	 1	 -30.0	 30.0;
	3102	 3103	 0.0011	 0.0127	 0.048	 2478	 1120.0	 1120.0	 0.0	 0.0	 1	 -30.0	 30.0;
	3102	 3103	 0.0011	 0.0127	 0.048	 2478	 1120.0	 1120.0	 0.0	 0.0	 1	 -30.0	 30.0;
	3102	 3302	 0.0011	 0.0127	 0.048	 2478	 1120.0	 1120.0	 0.0	 0.0	 1	 -30.0	 30.0;
	3103	 3204	 0.0011	 0.0127	 0.048	 2478	 1120.0	 1120.0	 0.0	 0.0	 1	 -30.0	 30.0;
	3103	 3204	 0.0011	 0.0127	 0.048	 2478	 1120.0	 1120.0	 0.0	 0.0	 1	 -30.0	 30.0;
	3103	 3305	 0.0011	 0.0127	 0.048	 2478	 1120.0	 1120.0	 0.0	 0.0	 1	 -30.0	 30.0;
	3103	 3305	 0.0011	 0.0127	 0.048	 2478	 1120.0	 1120.0	 0.0	 0.0	 1	 -30.0	 30.0;
	3104	 3105	 0.00312	 0.02886	 0.15252	 1089	 986.0	 986.0	 0.0	 0.0	 1	 -30.0	 30.0;
	3201	 3202	 0.0011	 0.0127	 0.048	 2478	 1120.0	 1120.0	 0.0	 0.0	 1	 -30.0	 30.0;
	3201	 3202	 0.0011	 0.0127	 0.048	 2478	 1120.0	 1120.0	 0.0	 0.0	 1	 -30.0	 30.0;
	3201	 3203	 0.0011	 0.0127	 0.048	 2478	 1120.0	 1120.0	 0.0	 0.0	 1	 -30.0	 30.0;
	3201	 3203	 0.0011	 0.0127	 0.048	 2478	 1120.0	 1120.0	 0.0	 0.0	 1	 -30.0	 30.0;
	3201	 3923	 0.00312	 0.02886	 0.15252	 1089	 986.0	 986.0	 0.0	 0.0	 1	 -30.0	 30.0;
	3201	 3923	 0.00312	 0.02886	 0.15252	 1089	 986.0	 986.0	 0.0	 0.0	 1	 -30.0	 30.0;
	3201	 3924	 0.0011	 0.0127	 0.048	 2478	 1120.0	 1120.0	 0.0	 0.0	 1	 -30.0	 30.0;
	3201	 3924	 0.0011	 0.0127	 0.048	 2478	 1120.0	 1120.0	 0.0	 0.0	 1	 -30.0	 30.0;
	3202	 3203	 0.0011	 0.0127	 0.048	 2478	 1120.0	 1120.0	 0.0	 0.0	 1	 -30.0	 30.0;
	3202	 3203	 0.00312	 0.02886	 0.15252	 1089	 986.0	 986.0	 0.0	 0.0	 1	 -30.0	 30.0;
	3202	 3204	 0.0011	 0.0127	 0.048	 2478	 1120.0	 1120.0	 0.0	 0.0	 1	 -30.0	 30.0;
	3202	 3205	 0.0011	 0.0127	 0.048	 2478	 1120.0	 1120.0	 0.0	 0.0	 1	 -30.0	 30.0;
	3202	 3924	 0.00312	 0.02886	 0.15252	 1089	 986.0	 986.0	 0.0	 0.0	 1	 -30.0	 30.0;
	3202	 3924	 0.00312	 0.02886	 0.15252	 1089	 986.0	 986.0	 0.0	 0.0	 1	 -30.0	 30.0;
	3203	 3204	 0.0011	 0.0127	 0.048	 2478	 1120.0	 1120.0	 0.0	 0.0	 1	 -30.0	 30.0;
	3203	 3303	 0.0011	 0.0127	 0.048	 2478	 1120.0	 1120.0	 0.0	 0.0	 1	 -30.0	 30.0;
	3203	 3303	 0.00312	 0.02886	 0.15252	 1089	 986.0	 986.0	 0.0	 0.0	 1	 -30.0	 30.0;
	3203	 3305	 0.0011	 0.0127	 0.048	 2478	 1120.0	 1120.0	 0.0	 0.0	 1	 -30.0	 30.0;
	3203	 3923	 0.00312	 0.02886	 0.15252	 1089	 986.0	 986.0	 0.0	 0.0	 1	 -30.0	 30.0;
	3203	 3923	 0.00312	 0.02886	 0.15252	 1089	 986.0	 986.0	 0.0	 0.0	 1	 -30.0	 30.0;
	3204	 3205	 0.0011	 0.0127	 0.048	 2478	 1120.0	 1120.0	 0.0	 0.0	 1	 -30.0	 30.0;
	3204	 3205	 0.0011	 0.0127	 0.048	 2478	 1120.0	 1120.0	 0.0	 0.0	 1	 -30.0	 30.0;
	3204	 3923	 0.00312	 0.02886	 0.15252	 1089	 986.0	 986.0	 0.0	 0.0	 1	 -30.0	 30.0;
	3204	 3923	 0.00312	 0.02886	 0.15252	 1089	 986.0	 986.0	 0.0	 0.0	 1	 -30.0	 30.0;
	3205	 3914	 0.00312	 0.02886	 0.15252	 1089	 986.0	 986.0	 0.0	 0.0	 1	 -30.0	 30.0;
	3205	 3915	 0.00312	 0.02886	 0.15252	 1089	 986.0	 986.0	 0.0	 0.0	 1	 -30.0	 30.0;
	3301	 3902	 0.00053	 0.01297	 0.0	 2434	 2434	 2434	 0.0	 0.0	 1	 -30.0	 30.0;
	3301	 3903	 1e-05	 -0.00755	 0.0	 4184	 4184	 4184	 0.0	 0.0	 1	 -30.0	 30.0;
	3302	 3304	 0.0011	 0.0127	 0.048	 2478	 1120.0	 1120.0	 0.0	 0.0	 1	 -30.0	 30.0;
	3302	 3304	 0.0011	 0.0127	 0.048	 2478	 1120.0	 1120.0	 0.0	 0.0	 1	 -30.0	 30.0;
	3303	 3304	 0.0011	 0.0127	 0.048	 2478	 1120.0	 1120.0	 0.0	 0.0	 1	 -30.0	 30.0;
	3303	 3304	 0.0011	 0.0127	 0.048	 2478	 1120.0	 1120.0	 0.0	 0.0	 1	 -30.0	 30.0;
	3303	 3304	 0.0011	 0.0127	 0.048	 2478	 1120.0	 1120.0	 0.0	 0.0	 1	 -30.0	 30.0;
	3303	 3918	 0.00312	 0.02886	 0.15252	 1089	 986.0	 986.0	 0.0	 0.0	 1	 -30.0	 30.0;
	3303	 3918	 0.00312	 0.02886	 0.15252	 1089	 986.0	 986.0	 0.0	 0.0	 1	 -30.0	 30.0;
...